202
energy: -401.228081961350 gnorm: 0.000488319231 xtb: 6.7.1 (edcfbbe)
C         -0.00020        4.25540        1.69680
C          0.07000        3.16170        2.55390
C          1.31500        2.82410        3.14980
C          2.33290        3.85190        3.10810
C          2.23660        4.93110        2.19930
C          1.08840        5.10380        1.46710
C          1.67530        1.61000        3.83680
C          2.72810        1.74330        4.77220
C          3.49580        2.94150        4.85390
N          3.36390        3.89770        3.94080
C          1.23810        0.26360        3.57370
C          1.81310       -0.77980        4.38790
N          2.62430       -0.56550        5.42020
C          3.10560        0.65630        5.61040
C          4.06100        0.84500        6.62990
C          4.73990        2.04900        6.74270
C          4.48970        3.07800        5.84220
C          0.43050       -0.17420        2.48470
C          0.34360       -1.53370        2.17770
C          0.92940       -2.52680        2.97210
C          1.60870       -2.14960        4.10140
O         -1.06630        2.52940        2.84950
O         -0.23890        0.63550        1.66520
C          0.99690        6.23200        0.50150
C          0.75410       -3.96920        2.66890
C          5.80080        2.24670        7.77150
C         -1.95600       -1.61040        3.65270
C         -2.59040       -0.70770        2.80020
C         -3.52980       -1.17740        1.83880
C         -3.67160       -2.60950        1.73480
C         -2.94870       -3.49030        2.57060
C         -2.14770       -2.99240        3.56530
C         -4.46340       -0.37550        1.09350
C         -5.51030       -1.07630        0.45340
C         -5.45230       -2.49070        0.30290
N         -4.52630       -3.21780        0.91440
C         -4.55600        1.05840        1.01860
C         -5.86890        1.60330        0.75650
N         -6.86310        0.89460        0.24060
C         -6.66170       -0.39120       -0.03590
C         -7.64240       -1.09680       -0.75400
C         -7.49990       -2.45850       -0.99990
C         -6.42340       -3.15500       -0.47740
C         -3.48880        1.98850        1.08730
C         -3.77220        3.34160        1.25290
C         -5.07970        3.83690        1.21870
C         -6.11770        2.98250        0.93600
O         -2.32920        0.57520        3.02220
O         -2.22240        1.60140        0.91340
C         -1.48350       -3.85410        4.57610
C         -5.37240        5.29160        1.35840
C         -8.55730       -3.14260       -1.79580
B         -1.44150        1.33890        2.12270
O          6.57220        3.16870        7.77910
O          5.79880        1.26730        8.68710
C          6.82580        1.32140        9.66860
O          0.00060       -4.17620        1.58710
C         -0.26560       -5.53250        1.25820
O          1.22020       -4.86810        3.33000
O         -0.79850       -3.42340        5.47290
O         -1.75690       -5.14420        4.39630
C         -1.18070       -6.06120        5.31900
O         -9.36410       -2.57640       -2.48410
O         -8.50880       -4.47640       -1.65710
C         -9.48430       -5.20680       -2.38940
O         -6.46620        5.77070        1.21000
O         -4.27830        6.01490        1.62630
C         -4.50130        7.41150        1.76910
O          1.93290        6.89910        0.14190
O         -0.25900        6.43840        0.07960
C         -0.43310        7.49150       -0.85670
H         -9.38540       -5.00310       -3.45730
H        -10.48830       -4.92150       -2.06980
H         -9.29880       -6.25710       -2.18050
H         -3.52040        7.86830        1.88100
H         -5.12570        7.59440        2.64610
H         -5.00980        7.80480        0.88640
H         -1.49340        7.51400       -1.09490
H          0.15770        7.30240       -1.75500
H         -0.11410        8.44180       -0.42300
H         -1.84340       -6.92340        5.35350
H         -1.09150       -5.59790        6.30290
H         -0.19090       -6.35300        4.96200
H         -0.83440       -6.00670        2.06050
H          0.66880       -6.07870        1.11310
H         -0.84590       -5.51130        0.33980
H          6.49910        0.68850       10.49000
H          6.97570        2.34940       10.00410
H          7.75990        0.94580        9.24590
H         -8.51380       -0.56990       -1.10900
H         -6.31080       -4.21660       -0.63000
H         -7.12050        3.35090        0.79180
H         -3.12350       -4.54570        2.44930
H         -2.94770        4.01960        1.39390
H         -1.32590       -1.20370        4.43020
H         -0.93200        4.44200        1.18910
H         -0.21200       -1.80410        1.29310
H          2.03760       -2.87210        4.77530
H          3.05650        5.62920        2.14340
H          5.07320        3.98470        5.87890
H          4.28330        0.01440        7.28070
C          0.50940        4.37720        9.62420
C          0.54820        3.41250       10.62630
C          1.74230        3.23620       11.37210
C          2.68420        4.33340       11.32200
C          2.57950        5.33790       10.33250
C          1.51880        5.33130        9.46190
C          2.06200        2.13210       12.24000
C          3.00930        2.43960       13.24670
C          3.70920        3.68290       13.25480
N          3.61420        4.53860       12.24380
C          1.66180        0.74580       12.13960
C          2.18880       -0.14240       13.15690
N          2.87940        0.25210       14.21530
C          3.31800        1.50380       14.27270
C          4.16180        1.86350       15.34170
C          4.78700        3.10180       15.35610
C          4.58530        3.99410       14.31110
C          0.93780        0.10270       11.09140
C          0.98890       -1.29220       10.95730
C          1.60430       -2.11830       11.90360
C          2.09920       -1.55290       13.04610
O         -0.56790        2.76650       10.96310
O          0.28040        0.72090       10.11240
C          1.38350        6.43110        8.46820
C          1.77110       -3.58230       11.68310
C          5.72460        3.49450       16.44790
C         -1.74000       -1.22720       11.97860
C         -2.28290       -0.36720       11.02430
C         -3.15740       -0.87560       10.01730
C         -3.38890       -2.30470       10.05980
C         -2.75110       -3.14470       11.00490
C         -1.94410       -2.60930       11.97100
C         -3.92160       -0.13100        9.04230
C         -4.92740       -0.85060        8.35090
C         -5.00210       -2.26870        8.43150
N         -4.21770       -2.95790        9.25250
C         -3.85900        1.26900        8.71810
C         -5.02740        1.85810        8.09830
N         -5.98240        1.14740        7.52140
C         -5.89420       -0.18100        7.54470
C         -6.82980       -0.91970        6.80200
C         -6.81840       -2.31050        6.82270
C         -5.91860       -2.98300        7.63240
C         -2.73910        2.12900        8.86560
C         -2.94040        3.50440        8.80760
C         -4.15880        4.07840        8.43100
C         -5.18090        3.26340        8.01600
O         -1.96200        0.91900       11.18380
O         -1.51120        1.64870        9.00020
C         -1.28030       -3.42340       13.02710
C         -4.33460        5.55480        8.43100
C         -7.80020       -3.03160        5.96610
B         -0.93480        1.52380       10.32280
O          6.21640        4.58820       16.55340
O          5.97060        2.48510       17.28960
C          6.86330        2.77200       18.35750
O          1.85370       -3.87320       10.39100
C          2.11190       -5.22980       10.05390
O          1.88820       -4.39690       12.56670
O         -0.72270       -2.94880       13.98390
O         -1.37970       -4.73340       12.79460
C         -0.75500       -5.58010       13.75560
O         -8.59570       -2.47910        5.24620
O         -7.70250       -4.35630        6.07930
C         -8.61660       -5.11830        5.30050
O         -5.32360        6.12600        8.04350
O         -3.27260        6.18770        8.94110
C         -3.36270        7.59970        9.04430
O          2.21050        7.28520        8.28400
O          0.20430        6.39110        7.83060
C         -0.06400        7.45760        6.93360
H         -8.42150       -4.97400        4.23620
H         -9.64200       -4.81090        5.51560
H         -8.45980       -6.15600        5.58280
H         -2.55230        7.90870        9.70000
H         -4.32880        7.88900        9.46340
H         -3.25280        8.06070        8.06070
H         -0.86980        7.11790        6.28720
H          0.82780        7.69960        6.35180
H         -0.36910        8.34490        7.49410
H         -1.01210       -6.59800       13.47420
H         -1.12470       -5.34980       14.75610
H          0.32600       -5.42850       13.73180
H          1.44470       -5.89300       10.60750
H          3.14500       -5.48370       10.30290
H          1.94700       -5.31020        8.98180
H          6.99740        1.83990       18.89970
H          6.44010        3.53830       19.00970
H          7.81710        3.13240       17.96690
H         -7.56670       -0.39020        6.21730
H         -5.90520       -4.05940        7.67970
H         -6.09940        3.65940        7.61350
H         -2.97470       -4.19770       10.96050
H         -2.12340        4.15300        9.06450
H         -1.14360       -0.79270       12.76680
H         -0.34700        4.41610        8.97470
H          0.49090       -1.73830       10.11080
H          2.51790       -2.14930       13.84030
H          3.31500        6.12530       10.31720
H          5.10820        4.93780       14.28950
H          4.32870        1.14200       16.12490
