202
energy: -401.228081961350 gnorm: 0.000488319231 xtb: 6.7.1 (edcfbbe)
C         -0.00020        4.25540        1.69680
C          0.07000        3.16170        2.55390
C          1.31500        2.82410        3.14980
C          2.33290        3.85190        3.10810
C          2.23660        4.93110        2.19930
C          1.08840        5.10380        1.46710
C          1.67530        1.61000        3.83680
C          2.72810        1.74330        4.77220
C          3.49580        2.94150        4.85390
N          3.36390        3.89770        3.94080
C          1.23810        0.26360        3.57370
C          1.81310       -0.77980        4.38790
N          2.62430       -0.56550        5.42020
C          3.10560        0.65630        5.61040
C          4.06100        0.84500        6.62990
C          4.73990        2.04900        6.74270
C          4.48970        3.07800        5.84220
C          0.43050       -0.17420        2.48470
C          0.34360       -1.53370        2.17770
C          0.92940       -2.52680        2.97210
C          1.60870       -2.14960        4.10140
O         -1.06630        2.52940        2.84950
O         -0.23890        0.63550        1.66520
C          0.99690        6.23200        0.50150
C          0.75410       -3.96920        2.66890
C          5.80080        2.24670        7.77150
C         -1.95600       -1.61040        3.65270
C         -2.59040       -0.70770        2.80020
C         -3.52980       -1.17740        1.83880
C         -3.67160       -2.60950        1.73480
C         -2.94870       -3.49030        2.57060
C         -2.14770       -2.99240        3.56530
C         -4.46340       -0.37550        1.09350
C         -5.51030       -1.07630        0.45340
C         -5.45230       -2.49070        0.30290
N         -4.52630       -3.21780        0.91440
C         -4.55600        1.05840        1.01860
C         -5.86890        1.60330        0.75650
N         -6.86310        0.89460        0.24060
C         -6.66170       -0.39120       -0.03590
C         -7.64240       -1.09680       -0.75400
C         -7.49990       -2.45850       -0.99990
C         -6.42340       -3.15500       -0.47740
C         -3.48880        1.98850        1.08730
C         -3.77220        3.34160        1.25290
C         -5.07970        3.83690        1.21870
C         -6.11770        2.98250        0.93600
O         -2.32920        0.57520        3.02220
O         -2.22240        1.60140        0.91340
C         -1.48350       -3.85410        4.57610
C         -5.37240        5.29160        1.35840
C         -8.55730       -3.14260       -1.79580
B         -1.44150        1.33890        2.12270
O          6.57220        3.16870        7.77910
O          5.79880        1.26730        8.68710
C          6.82580        1.32140        9.66860
O          0.00060       -4.17620        1.58710
C         -0.26560       -5.53250        1.25820
O          1.22020       -4.86810        3.33000
O         -0.79850       -3.42340        5.47290
O         -1.75690       -5.14420        4.39630
C         -1.18070       -6.06120        5.31900
O         -9.36410       -2.57640       -2.48410
O         -8.50880       -4.47640       -1.65710
C         -9.48430       -5.20680       -2.38940
O         -6.46620        5.77070        1.21000
O         -4.27830        6.01490        1.62630
C         -4.50130        7.41150        1.76910
O          1.93290        6.89910        0.14190
O         -0.25900        6.43840        0.07960
C         -0.43310        7.49150       -0.85670
H         -9.38540       -5.00310       -3.45730
H        -10.48830       -4.92150       -2.06980
H         -9.29880       -6.25710       -2.18050
H         -3.52040        7.86830        1.88100
H         -5.12570        7.59440        2.64610
H         -5.00980        7.80480        0.88640
H         -1.49340        7.51400       -1.09490
H          0.15770        7.30240       -1.75500
H         -0.11410        8.44180       -0.42300
H         -1.84340       -6.92340        5.35350
H         -1.09150       -5.59790        6.30290
H         -0.19090       -6.35300        4.96200
H         -0.83440       -6.00670        2.06050
H          0.66880       -6.07870        1.11310
H         -0.84590       -5.51130        0.33980
H          6.49910        0.68850       10.49000
H          6.97570        2.34940       10.00410
H          7.75990        0.94580        9.24590
H         -8.51380       -0.56990       -1.10900
H         -6.31080       -4.21660       -0.63000
H         -7.12050        3.35090        0.79180
H         -3.12350       -4.54570        2.44930
H         -2.94770        4.01960        1.39390
H         -1.32590       -1.20370        4.43020
H         -0.93200        4.44200        1.18910
H         -0.21200       -1.80410        1.29310
H          2.03760       -2.87210        4.77530
H          3.05650        5.62920        2.14340
H          5.07320        3.98470        5.87890
H          4.28330        0.01440        7.28070
C          0.50940        4.37720        7.07420
C          0.54820        3.41250        8.07630
C          1.74230        3.23620        8.82210
C          2.68420        4.33340        8.77200
C          2.57950        5.33790        7.78250
C          1.51880        5.33130        6.91190
C          2.06200        2.13210        9.69000
C          3.00930        2.43960       10.69670
C          3.70920        3.68290       10.70480
N          3.61420        4.53860        9.69380
C          1.66180        0.74580        9.58960
C          2.18880       -0.14240       10.60690
N          2.87940        0.25210       11.66530
C          3.31800        1.50380       11.72270
C          4.16180        1.86350       12.79170
C          4.78700        3.10180       12.80610
C          4.58530        3.99410       11.76110
C          0.93780        0.10270        8.54140
C          0.98890       -1.29220        8.40730
C          1.60430       -2.11830        9.35360
C          2.09920       -1.55290       10.49610
O         -0.56790        2.76650        8.41310
O          0.28040        0.72090        7.56240
C          1.38350        6.43110        5.91820
C          1.77110       -3.58230        9.13310
C          5.72460        3.49450       13.89790
C         -1.74000       -1.22720        9.42860
C         -2.28290       -0.36720        8.47430
C         -3.15740       -0.87560        7.46730
C         -3.38890       -2.30470        7.50980
C         -2.75110       -3.14470        8.45490
C         -1.94410       -2.60930        9.42100
C         -3.92160       -0.13100        6.49230
C         -4.92740       -0.85060        5.80090
C         -5.00210       -2.26870        5.88150
N         -4.21770       -2.95790        6.70250
C         -3.85900        1.26900        6.16810
C         -5.02740        1.85810        5.54830
N         -5.98240        1.14740        4.97140
C         -5.89420       -0.18100        4.99470
C         -6.82980       -0.91970        4.25200
C         -6.81840       -2.31050        4.27270
C         -5.91860       -2.98300        5.08240
C         -2.73910        2.12900        6.31560
C         -2.94040        3.50440        6.25760
C         -4.15880        4.07840        5.88100
C         -5.18090        3.26340        5.46600
O         -1.96200        0.91900        8.63380
O         -1.51120        1.64870        6.45020
C         -1.28030       -3.42340       10.47710
C         -4.33460        5.55480        5.88100
C         -7.80020       -3.03160        3.41610
B         -0.93480        1.52380        7.77280
O          6.21640        4.58820       14.00340
O          5.97060        2.48510       14.73960
C          6.86330        2.77200       15.80750
O          1.85370       -3.87320        7.84100
C          2.11190       -5.22980        7.50390
O          1.88820       -4.39690       10.01670
O         -0.72270       -2.94880       11.43390
O         -1.37970       -4.73340       10.24460
C         -0.75500       -5.58010       11.20560
O         -8.59570       -2.47910        2.69620
O         -7.70250       -4.35630        3.52930
C         -8.61660       -5.11830        2.75050
O         -5.32360        6.12600        5.49350
O         -3.27260        6.18770        6.39110
C         -3.36270        7.59970        6.49430
O          2.21050        7.28520        5.73400
O          0.20430        6.39110        5.28060
C         -0.06400        7.45760        4.38360
H         -8.42150       -4.97400        1.68620
H         -9.64200       -4.81090        2.96560
H         -8.45980       -6.15600        3.03280
H         -2.55230        7.90870        7.15000
H         -4.32880        7.88900        6.91340
H         -3.25280        8.06070        5.51070
H         -0.86980        7.11790        3.73720
H          0.82780        7.69960        3.80180
H         -0.36910        8.34490        4.94410
H         -1.01210       -6.59800       10.92420
H         -1.12470       -5.34980       12.20610
H          0.32600       -5.42850       11.18180
H          1.44470       -5.89300        8.05750
H          3.14500       -5.48370        7.75290
H          1.94700       -5.31020        6.43180
H          6.99740        1.83990       16.34970
H          6.44010        3.53830       16.45970
H          7.81710        3.13240       15.41690
H         -7.56670       -0.39020        3.66730
H         -5.90520       -4.05940        5.12970
H         -6.09940        3.65940        5.06350
H         -2.97470       -4.19770        8.41050
H         -2.12340        4.15300        6.51450
H         -1.14360       -0.79270       10.21680
H         -0.34700        4.41610        6.42470
H          0.49090       -1.73830        7.56080
H          2.51790       -2.14930       11.29030
H          3.31500        6.12530        7.76720
H          5.10820        4.93780       11.73950
H          4.32870        1.14200       13.57490
