202
 energy: -401.228081961350 gnorm: 0.000488319231 xtb: 6.7.1 (edcfbbe)
 C   -0.000200    4.255400    1.696800
 C    0.070000    3.161700    2.553900
 C    1.315000    2.824100    3.149800
 C    2.332900    3.851900    3.108100
 C    2.236600    4.931100    2.199300
 C    1.088400    5.103800    1.467100
 C    1.675300    1.610000    3.836800
 C    2.728100    1.743300    4.772200
 C    3.495800    2.941500    4.853900
 N    3.363900    3.897700    3.940800
 C    1.238100    0.263600    3.573700
 C    1.813100   -0.779800    4.387900
 N    2.624300   -0.565500    5.420200
 C    3.105600    0.656300    5.610400
 C    4.061000    0.845000    6.629900
 C    4.739900    2.049000    6.742700
 C    4.489700    3.078000    5.842200
 C    0.430500   -0.174200    2.484700
 C    0.343600   -1.533700    2.177700
 C    0.929400   -2.526800    2.972100
 C    1.608700   -2.149600    4.101400
 O   -1.066300    2.529400    2.849500
 O   -0.238900    0.635500    1.665200
 C    0.996900    6.232000    0.501500
 C    0.754100   -3.969200    2.668900
 C    5.800800    2.246700    7.771500
 C   -1.956000   -1.610400    3.652700
 C   -2.590400   -0.707700    2.800200
 C   -3.529800   -1.177400    1.838800
 C   -3.671600   -2.609500    1.734800
 C   -2.948700   -3.490300    2.570600
 C   -2.147700   -2.992400    3.565300
 C   -4.463400   -0.375500    1.093500
 C   -5.510300   -1.076300    0.453400
 C   -5.452300   -2.490700    0.302900
 N   -4.526300   -3.217800    0.914400
 C   -4.556000    1.058400    1.018600
 C   -5.868900    1.603300    0.756500
 N   -6.863100    0.894600    0.240600
 C   -6.661700   -0.391200   -0.035900
 C   -7.642400   -1.096800   -0.754000
 C   -7.499900   -2.458500   -0.999900
 C   -6.423400   -3.155000   -0.477400
 C   -3.488800    1.988500    1.087300
 C   -3.772200    3.341600    1.252900
 C   -5.079700    3.836900    1.218700
 C   -6.117700    2.982500    0.936000
 O   -2.329200    0.575200    3.022200
 O   -2.222400    1.601400    0.913400
 C   -1.483500   -3.854100    4.576100
 C   -5.372400    5.291600    1.358400
 C   -8.557300   -3.142600   -1.795800
 B   -1.441500    1.338900    2.122700
 O    6.572200    3.168700    7.779100
 O    5.798800    1.267300    8.687100
 C    6.825800    1.321400    9.668600
 O    0.000600   -4.176200    1.587100
 C   -0.265600   -5.532500    1.258200
 O    1.220200   -4.868100    3.330000
 O   -0.798500   -3.423400    5.472900
 O   -1.756900   -5.144200    4.396300
 C   -1.180700   -6.061200    5.319000
 O   -9.364100   -2.576400   -2.484100
 O   -8.508800   -4.476400   -1.657100
 C   -9.484300   -5.206800   -2.389400
 O   -6.466200    5.770700    1.210000
 O   -4.278300    6.014900    1.626300
 C   -4.501300    7.411500    1.769100
 O    1.932900    6.899100    0.141900
 O   -0.259000    6.438400    0.079600
 C   -0.433100    7.491500   -0.856700
 H   -9.385400   -5.003100   -3.457300
 H  -10.488300   -4.921500   -2.069800
 H   -9.298800   -6.257100   -2.180500
 H   -3.520400    7.868300    1.881000
 H   -5.125700    7.594400    2.646100
 H   -5.009800    7.804800    0.886400
 H   -1.493400    7.514000   -1.094900
 H    0.157700    7.302400   -1.755000
 H   -0.114100    8.441800   -0.423000
 H   -1.843400   -6.923400    5.353500
 H   -1.091500   -5.597900    6.302900
 H   -0.190900   -6.353000    4.962000
 H   -0.834400   -6.006700    2.060500
 H    0.668800   -6.078700    1.113100
 H   -0.845900   -5.511300    0.339800
 H    6.499100    0.688500   10.490000
 H    6.975700    2.349400   10.004100
 H    7.759900    0.945800    9.245900
 H   -8.513800   -0.569900   -1.109000
 H   -6.310800   -4.216600   -0.630000
 H   -7.120500    3.350900    0.791800
 H   -3.123500   -4.545700    2.449300
 H   -2.947700    4.019600    1.393900
 H   -1.325900   -1.203700    4.430200
 H   -0.932000    4.442000    1.189100
 H   -0.212000   -1.804100    1.293100
 H    2.037600   -2.872100    4.775300
 H    3.056500    5.629200    2.143400
 H    5.073200    3.984700    5.878900
 H    4.283300    0.014400    7.280700
 C    0.509400    4.377200    6.124200
 C    0.548200    3.412500    7.126300
 C    1.742300    3.236200    7.872100
 C    2.684200    4.333400    7.822000
 C    2.579500    5.337900    6.832500
 C    1.518800    5.331300    5.961900
 C    2.062000    2.132100    8.740000
 C    3.009300    2.439600    9.746700
 C    3.709200    3.682900    9.754800
 N    3.614200    4.538600    8.743800
 C    1.661800    0.745800    8.639600
 C    2.188800   -0.142400    9.656900
 N    2.879400    0.252100   10.715300
 C    3.318000    1.503800   10.772700
 C    4.161800    1.863500   11.841700
 C    4.787000    3.101800   11.856100
 C    4.585300    3.994100   10.811100
 C    0.937800    0.102700    7.591400
 C    0.988900   -1.292200    7.457300
 C    1.604300   -2.118300    8.403600
 C    2.099200   -1.552900    9.546100
 O   -0.567900    2.766500    7.463100
 O    0.280400    0.720900    6.612400
 C    1.383500    6.431100    4.968200
 C    1.771100   -3.582300    8.183100
 C    5.724600    3.494500   12.947900
 C   -1.740000   -1.227200    8.478600
 C   -2.282900   -0.367200    7.524300
 C   -3.157400   -0.875600    6.517300
 C   -3.388900   -2.304700    6.559800
 C   -2.751100   -3.144700    7.504900
 C   -1.944100   -2.609300    8.471000
 C   -3.921600   -0.131000    5.542300
 C   -4.927400   -0.850600    4.850900
 C   -5.002100   -2.268700    4.931500
 N   -4.217700   -2.957900    5.752500
 C   -3.859000    1.269000    5.218100
 C   -5.027400    1.858100    4.598300
 N   -5.982400    1.147400    4.021400
 C   -5.894200   -0.181000    4.044700
 C   -6.829800   -0.919700    3.302000
 C   -6.818400   -2.310500    3.322700
 C   -5.918600   -2.983000    4.132400
 C   -2.739100    2.129000    5.365600
 C   -2.940400    3.504400    5.307600
 C   -4.158800    4.078400    4.931000
 C   -5.180900    3.263400    4.516000
 O   -1.962000    0.919000    7.683800
 O   -1.511200    1.648700    5.500200
 C   -1.280300   -3.423400    9.527100
 C   -4.334600    5.554800    4.931000
 C   -7.800200   -3.031600    2.466100
 B   -0.934800    1.523800    6.822800
 O    6.216400    4.588200   13.053400
 O    5.970600    2.485100   13.789600
 C    6.863300    2.772000   14.857500
 O    1.853700   -3.873200    6.891000
 C    2.111900   -5.229800    6.553900
 O    1.888200   -4.396900    9.066700
 O   -0.722700   -2.948800   10.483900
 O   -1.379700   -4.733400    9.294600
 C   -0.755000   -5.580100   10.255600
 O   -8.595700   -2.479100    1.746200
 O   -7.702500   -4.356300    2.579300
 C   -8.616600   -5.118300    1.800500
 O   -5.323600    6.126000    4.543500
 O   -3.272600    6.187700    5.441100
 C   -3.362700    7.599700    5.544300
 O    2.210500    7.285200    4.784000
 O    0.204300    6.391100    4.330600
 C   -0.064000    7.457600    3.433600
 H   -8.421500   -4.974000    0.736200
 H   -9.642000   -4.810900    2.015600
 H   -8.459800   -6.156000    2.082800
 H   -2.552300    7.908700    6.200000
 H   -4.328800    7.889000    5.963400
 H   -3.252800    8.060700    4.560700
 H   -0.869800    7.117900    2.787200
 H    0.827800    7.699600    2.851800
 H   -0.369100    8.344900    3.994100
 H   -1.012100   -6.598000    9.974200
 H   -1.124700   -5.349800   11.256100
 H    0.326000   -5.428500   10.231800
 H    1.444700   -5.893000    7.107500
 H    3.145000   -5.483700    6.802900
 H    1.947000   -5.310200    5.481800
 H    6.997400    1.839900   15.399700
 H    6.440100    3.538300   15.509700
 H    7.817100    3.132400   14.466900
 H   -7.566700   -0.390200    2.717300
 H   -5.905200   -4.059400    4.179700
 H   -6.099400    3.659400    4.113500
 H   -2.974700   -4.197700    7.460500
 H   -2.123400    4.153000    5.564500
 H   -1.143600   -0.792700    9.266800
 H   -0.347000    4.416100    5.474700
 H    0.490900   -1.738300    6.610800
 H    2.517900   -2.149300   10.340300
 H    3.315000    6.125300    6.817200
 H    5.108200    4.937800   10.789500
 H    4.328700    1.142000   12.624900
