116
energy: -110.210595618232 gnorm: 0.000454095298 xtb: 6.7.1 (edcfbbe)_energy: -110.2105956
 C   -2.053300    1.546200   -2.663800
 C   -1.851100    0.696500   -1.594300
 C   -1.033700    1.123800   -0.514600
 C   -0.230800    2.299300   -0.678400
 C   -0.492200    3.160000   -1.772800
 C   -1.410100    2.787900   -2.706100
 C   -0.875600    0.407100    0.709900
 C    0.314900    0.633300    1.418900
 C    1.139600    1.745800    1.075400
 N    0.788600    2.606400    0.121700
 C   -1.799700   -0.512900    1.292300
 C   -1.271900   -1.428000    2.260700
 N   -0.052600   -1.313900    2.787400
 C    0.687100   -0.253700    2.472900
 C    1.905900   -0.019700    3.145200
 C    2.680000    1.070100    2.808900
 C    2.322400    1.959800    1.814800
 C   -3.197600   -0.506800    1.049000
 C   -3.970500   -1.536900    1.548800
 C   -3.396400   -2.533100    2.339500
 C   -2.092100   -2.481000    2.733600
 O   -3.700200    0.566600    0.392600
 O   -2.323500   -0.573100   -1.532000
 S   -1.844000    3.890600   -4.105600
 S   -4.463300   -3.921500    2.896600
 H    0.063800    4.078300   -1.871700
 H   -2.704000    1.285100   -3.482700
 H    2.942600    2.808300    1.574800
 H    2.224600   -0.691400    3.927300
 H   -1.670300   -3.198500    3.417600
 H   -5.029900   -1.610900    1.358800
 O   -1.029500    5.068800   -3.902000
 O   -3.393400    4.222400   -3.553800
 C   -3.484100    5.079600   -2.445400
 S    4.280600    1.346900    3.680300
 O    4.337000    0.272300    4.649700
 O    5.246500    0.925100    2.382700
 C    5.316100   -0.441900    2.069200
 O   -5.737300   -3.638100    2.260700
 O   -3.689100   -5.099300    2.000000
 C   -3.851700   -5.034200    0.607800
 C   -5.092600    0.646500    0.197200
 C   -3.103700   -1.057000   -2.598500
 H   -3.711100   -6.039300    0.212500
 H   -3.115800   -4.355000    0.164200
 H   -4.862200   -4.686800    0.366200
 H    6.284200   -0.624500    1.604800
 H    4.514600   -0.721300    1.377600
 H    5.231600   -1.039200    2.983200
 H   -3.369300   -2.078100   -2.327700
 H   -2.538200   -1.066700   -3.535600
 H   -4.015900   -0.467300   -2.731000
 H   -5.259900    1.582400   -0.334200
 H   -5.629000    0.668200    1.150500
 H   -5.463900   -0.186600   -0.407100
 H   -4.443300    5.592400   -2.502400
 H   -2.675000    5.816700   -2.476800
 H   -3.419100    4.512300   -1.511100
 C   -2.053300    1.546200    5.336200
 C   -1.851100    0.696500    6.405700
 C   -1.033700    1.123800    7.485400
 C   -0.230800    2.299300    7.321600
 C   -0.492200    3.160000    6.227200
 C   -1.410100    2.787900    5.293900
 C   -0.875600    0.407100    8.709900
 C    0.314900    0.633300    9.418900
 C    1.139600    1.745800    9.075400
 N    0.788600    2.606400    8.121700
 C   -1.799700   -0.512900    9.292300
 C   -1.271900   -1.428000   10.260700
 N   -0.052600   -1.313900   10.787400
 C    0.687100   -0.253700   10.472900
 C    1.905900   -0.019700   11.145200
 C    2.680000    1.070100   10.808900
 C    2.322400    1.959800    9.814800
 C   -3.197600   -0.506800    9.049000
 C   -3.970500   -1.536900    9.548800
 C   -3.396400   -2.533100   10.339500
 C   -2.092100   -2.481000   10.733600
 O   -3.700200    0.566600    8.392600
 O   -2.323500   -0.573100    6.468000
 S   -1.844000    3.890600    3.894400
 S   -4.463300   -3.921500   10.896600
 H    0.063800    4.078300    6.128300
 H   -2.704000    1.285100    4.517300
 H    2.942600    2.808300    9.574800
 H    2.224600   -0.691400   11.927300
 H   -1.670300   -3.198500   11.417600
 H   -5.029900   -1.610900    9.358800
 O   -1.029500    5.068800    4.098000
 O   -3.393400    4.222400    4.446200
 C   -3.484100    5.079600    5.554600
 S    4.280600    1.346900   11.680300
 O    4.337000    0.272300   12.649700
 O    5.246500    0.925100   10.382700
 C    5.316100   -0.441900   10.069200
 O   -5.737300   -3.638100   10.260700
 O   -3.689100   -5.099300   10.000000
 C   -3.851700   -5.034200    8.607800
 C   -5.092600    0.646500    8.197200
 C   -3.103700   -1.057000    5.401500
 H   -3.711100   -6.039300    8.212500
 H   -3.115800   -4.355000    8.164200
 H   -4.862200   -4.686800    8.366200
 H    6.284200   -0.624500    9.604800
 H    4.514600   -0.721300    9.377600
 H    5.231600   -1.039200   10.983200
 H   -3.369300   -2.078100    5.672300
 H   -2.538200   -1.066700    4.464400
 H   -4.015900   -0.467300    5.269000
 H   -5.259900    1.582400    7.665800
 H   -5.629000    0.668200    9.150500
 H   -5.463900   -0.186600    7.592900
 H   -4.443300    5.592400    5.497600
 H   -2.675000    5.816700    5.523200
 H   -3.419100    4.512300    6.488900
