150
energy: -166.141801994367 gnorm: 0.000167719447 xtb: 6.7.1 (edcfbbe)_energy: -166.141801994367 gnorm: 0.000167719447 xtb: 6.7.1 (edcfbbe)
C          0.05650        3.81550        0.36370
C          0.53490       -3.36180        1.85700
C         -4.10870        1.55580       -1.49080
C         -3.47690        0.60470       -0.69710
C         -2.28230        0.94850       -0.00700
C         -1.64010        2.17600       -0.28950
C         -2.27640        3.10840       -1.11420
C         -3.49670        2.77700       -1.64580
C         -1.65130        0.05480        0.91120
C         -0.24420        0.18020        1.06410
C          0.38720        1.39470        0.70590
N         -0.39390        2.43890        0.25140
C         -2.29590       -0.95680        1.68680
C         -1.52520       -2.06370        2.11030
N         -0.16510       -2.08880        1.85870
C          0.49830       -0.91180        1.57210
C          1.87170       -0.75570        1.76720
C          2.45210        0.42340        1.36660
C          1.77530        1.48780        0.82200
C         -3.65060       -0.84260        2.10230
C         -4.26420       -1.91410        2.74190
C         -3.49830       -3.01970        3.02690
C         -2.15320       -3.11980        2.77740
O         -4.25200        0.34290        1.88570
O         -3.90400       -0.66660       -0.57280
H         -5.04230        1.36830       -1.98820
H         -1.84880        4.06280       -1.35420
H         -5.30100       -1.90550        3.02300
H         -1.62930       -3.99660        3.10600
H          2.48820       -1.50620        2.22590
H          2.33560        2.34380        0.49500
C          0.01870       -4.28080        0.74340
C          0.77600       -5.60260        0.74870
C         -0.84770        4.62490        1.30100
C         -0.34810        6.05960        1.41530
C         -5.59300        0.51450        2.29670
C         -5.07700       -1.06480       -1.25260
S         -4.37870        4.05580       -2.61980
F         -4.04540        5.24130       -1.49700
F         -3.01010        4.48510       -3.46140
F         -5.82570        3.74040       -1.85570
F         -5.16140        5.18540       -3.46410
F         -4.79040        2.98270       -3.82170
S         -4.33700       -4.46910        3.77380
F         -5.61680       -4.36430        2.71120
F         -5.17690       -3.53400        4.86260
F         -5.07790       -5.74960        4.41620
F         -3.57040       -5.53110        2.74300
F         -3.13000       -4.70330        4.89360
S          4.26760        0.58970        1.57590
F          4.55220       -0.94560        1.00220
F          4.46680        1.20360        0.04430
F          5.86170        0.73630        1.76000
F          4.13440        2.13900        2.16740
F          4.22230       -0.00980        3.12520
H          0.43940       -3.84940        2.83070
H          1.59170       -3.17880        1.67610
H          0.15770       -3.77820       -0.21580
H         -1.04700       -4.47170        0.87160
H          1.84180       -5.43800        0.60910
H          0.41960       -6.24230       -0.05320
H          0.62660       -6.12360        1.69080
H         -5.22270       -2.11060       -0.98620
H         -4.95820       -0.97460       -2.33570
H         -5.94430       -0.48160       -0.93260
H         -5.85390        1.53200        2.00980
H         -5.69420        0.40060        3.37940
H         -6.26030       -0.19010        1.79350
H          0.10040        4.28310       -0.62350
H          1.06040        3.82110        0.78210
H         -0.84300        4.15160        2.28470
H         -1.87390        4.62560        0.93300
H          0.67120        6.08510        1.79330
H         -0.98030        6.62390        2.09460
H         -0.37000        6.54920        0.44510
C          0.05650        3.81550        7.11370
C          0.53490       -3.36180        8.60700
C         -4.10870        1.55580        5.25920
C         -3.47690        0.60470        6.05290
C         -2.28230        0.94850        6.74300
C         -1.64010        2.17600        6.46050
C         -2.27640        3.10840        5.63580
C         -3.49670        2.77700        5.10420
C         -1.65130        0.05480        7.66120
C         -0.24420        0.18020        7.81410
C          0.38720        1.39470        7.45590
N         -0.39390        2.43890        7.00140
C         -2.29590       -0.95680        8.43680
C         -1.52520       -2.06370        8.86030
N         -0.16510       -2.08880        8.60870
C          0.49830       -0.91180        8.32210
C          1.87170       -0.75570        8.51720
C          2.45210        0.42340        8.11660
C          1.77530        1.48780        7.57200
C         -3.65060       -0.84260        8.85230
C         -4.26420       -1.91410        9.49190
C         -3.49830       -3.01970        9.77690
C         -2.15320       -3.11980        9.52740
O         -4.25200        0.34290        8.63570
O         -3.90400       -0.66660        6.17720
H         -5.04230        1.36830        4.76180
H         -1.84880        4.06280        5.39580
H         -5.30100       -1.90550        9.77300
H         -1.62930       -3.99660        9.85600
H          2.48820       -1.50620        8.97590
H          2.33560        2.34380        7.24500
C          0.01870       -4.28080        7.49340
C          0.77600       -5.60260        7.49870
C         -0.84770        4.62490        8.05100
C         -0.34810        6.05960        8.16530
C         -5.59300        0.51450        9.04670
C         -5.07700       -1.06480        5.49740
S         -4.37870        4.05580        4.13020
F         -4.04540        5.24130        5.25300
F         -3.01010        4.48510        3.28860
F         -5.82570        3.74040        4.89430
F         -5.16140        5.18540        3.28590
F         -4.79040        2.98270        2.92830
S         -4.33700       -4.46910       10.52380
F         -5.61680       -4.36430        9.46120
F         -5.17690       -3.53400       11.61260
F         -5.07790       -5.74960       11.16620
F         -3.57040       -5.53110        9.49300
F         -3.13000       -4.70330       11.64360
S          4.26760        0.58970        8.32590
F          4.55220       -0.94560        7.75220
F          4.46680        1.20360        6.79430
F          5.86170        0.73630        8.51000
F          4.13440        2.13900        8.91740
F          4.22230       -0.00980        9.87520
H          0.43940       -3.84940        9.58070
H          1.59170       -3.17880        8.42610
H          0.15770       -3.77820        6.53420
H         -1.04700       -4.47170        7.62160
H          1.84180       -5.43800        7.35910
H          0.41960       -6.24230        6.69680
H          0.62660       -6.12360        8.44080
H         -5.22270       -2.11060        5.76380
H         -4.95820       -0.97460        4.41430
H         -5.94430       -0.48160        5.81740
H         -5.85390        1.53200        8.75980
H         -5.69420        0.40060       10.12940
H         -6.26030       -0.19010        8.54350
H          0.10040        4.28310        6.12650
H          1.06040        3.82110        7.53210
H         -0.84300        4.15160        9.03470
H         -1.87390        4.62560        7.68300
H          0.67120        6.08510        8.54330
H         -0.98030        6.62390        8.84460
H         -0.37000        6.54920        7.19510
