150
energy: -166.141801994367 gnorm: 0.000167719447 xtb: 6.7.1 (edcfbbe)_energy: -166.141801994367 gnorm: 0.000167719447 xtb: 6.7.1 (edcfbbe)
C          0.05650        3.81550        0.36370
C          0.53490       -3.36180        1.85700
C         -4.10870        1.55580       -1.49080
C         -3.47690        0.60470       -0.69710
C         -2.28230        0.94850       -0.00700
C         -1.64010        2.17600       -0.28950
C         -2.27640        3.10840       -1.11420
C         -3.49670        2.77700       -1.64580
C         -1.65130        0.05480        0.91120
C         -0.24420        0.18020        1.06410
C          0.38720        1.39470        0.70590
N         -0.39390        2.43890        0.25140
C         -2.29590       -0.95680        1.68680
C         -1.52520       -2.06370        2.11030
N         -0.16510       -2.08880        1.85870
C          0.49830       -0.91180        1.57210
C          1.87170       -0.75570        1.76720
C          2.45210        0.42340        1.36660
C          1.77530        1.48780        0.82200
C         -3.65060       -0.84260        2.10230
C         -4.26420       -1.91410        2.74190
C         -3.49830       -3.01970        3.02690
C         -2.15320       -3.11980        2.77740
O         -4.25200        0.34290        1.88570
O         -3.90400       -0.66660       -0.57280
H         -5.04230        1.36830       -1.98820
H         -1.84880        4.06280       -1.35420
H         -5.30100       -1.90550        3.02300
H         -1.62930       -3.99660        3.10600
H          2.48820       -1.50620        2.22590
H          2.33560        2.34380        0.49500
C          0.01870       -4.28080        0.74340
C          0.77600       -5.60260        0.74870
C         -0.84770        4.62490        1.30100
C         -0.34810        6.05960        1.41530
C         -5.59300        0.51450        2.29670
C         -5.07700       -1.06480       -1.25260
S         -4.37870        4.05580       -2.61980
F         -4.04540        5.24130       -1.49700
F         -3.01010        4.48510       -3.46140
F         -5.82570        3.74040       -1.85570
F         -5.16140        5.18540       -3.46410
F         -4.79040        2.98270       -3.82170
S         -4.33700       -4.46910        3.77380
F         -5.61680       -4.36430        2.71120
F         -5.17690       -3.53400        4.86260
F         -5.07790       -5.74960        4.41620
F         -3.57040       -5.53110        2.74300
F         -3.13000       -4.70330        4.89360
S          4.26760        0.58970        1.57590
F          4.55220       -0.94560        1.00220
F          4.46680        1.20360        0.04430
F          5.86170        0.73630        1.76000
F          4.13440        2.13900        2.16740
F          4.22230       -0.00980        3.12520
H          0.43940       -3.84940        2.83070
H          1.59170       -3.17880        1.67610
H          0.15770       -3.77820       -0.21580
H         -1.04700       -4.47170        0.87160
H          1.84180       -5.43800        0.60910
H          0.41960       -6.24230       -0.05320
H          0.62660       -6.12360        1.69080
H         -5.22270       -2.11060       -0.98620
H         -4.95820       -0.97460       -2.33570
H         -5.94430       -0.48160       -0.93260
H         -5.85390        1.53200        2.00980
H         -5.69420        0.40060        3.37940
H         -6.26030       -0.19010        1.79350
H          0.10040        4.28310       -0.62350
H          1.06040        3.82110        0.78210
H         -0.84300        4.15160        2.28470
H         -1.87390        4.62560        0.93300
H          0.67120        6.08510        1.79330
H         -0.98030        6.62390        2.09460
H         -0.37000        6.54920        0.44510
C          0.05650        3.81550        8.01370
C          0.53490       -3.36180        9.50700
C         -4.10870        1.55580        6.15920
C         -3.47690        0.60470        6.95290
C         -2.28230        0.94850        7.64300
C         -1.64010        2.17600        7.36050
C         -2.27640        3.10840        6.53580
C         -3.49670        2.77700        6.00420
C         -1.65130        0.05480        8.56120
C         -0.24420        0.18020        8.71410
C          0.38720        1.39470        8.35590
N         -0.39390        2.43890        7.90140
C         -2.29590       -0.95680        9.33680
C         -1.52520       -2.06370        9.76030
N         -0.16510       -2.08880        9.50870
C          0.49830       -0.91180        9.22210
C          1.87170       -0.75570        9.41720
C          2.45210        0.42340        9.01660
C          1.77530        1.48780        8.47200
C         -3.65060       -0.84260        9.75230
C         -4.26420       -1.91410       10.39190
C         -3.49830       -3.01970       10.67690
C         -2.15320       -3.11980       10.42740
O         -4.25200        0.34290        9.53570
O         -3.90400       -0.66660        7.07720
H         -5.04230        1.36830        5.66180
H         -1.84880        4.06280        6.29580
H         -5.30100       -1.90550       10.67300
H         -1.62930       -3.99660       10.75600
H          2.48820       -1.50620        9.87590
H          2.33560        2.34380        8.14500
C          0.01870       -4.28080        8.39340
C          0.77600       -5.60260        8.39870
C         -0.84770        4.62490        8.95100
C         -0.34810        6.05960        9.06530
C         -5.59300        0.51450        9.94670
C         -5.07700       -1.06480        6.39740
S         -4.37870        4.05580        5.03020
F         -4.04540        5.24130        6.15300
F         -3.01010        4.48510        4.18860
F         -5.82570        3.74040        5.79430
F         -5.16140        5.18540        4.18590
F         -4.79040        2.98270        3.82830
S         -4.33700       -4.46910       11.42380
F         -5.61680       -4.36430       10.36120
F         -5.17690       -3.53400       12.51260
F         -5.07790       -5.74960       12.06620
F         -3.57040       -5.53110       10.39300
F         -3.13000       -4.70330       12.54360
S          4.26760        0.58970        9.22590
F          4.55220       -0.94560        8.65220
F          4.46680        1.20360        7.69430
F          5.86170        0.73630        9.41000
F          4.13440        2.13900        9.81740
F          4.22230       -0.00980       10.77520
H          0.43940       -3.84940       10.48070
H          1.59170       -3.17880        9.32610
H          0.15770       -3.77820        7.43420
H         -1.04700       -4.47170        8.52160
H          1.84180       -5.43800        8.25910
H          0.41960       -6.24230        7.59680
H          0.62660       -6.12360        9.34080
H         -5.22270       -2.11060        6.66380
H         -4.95820       -0.97460        5.31430
H         -5.94430       -0.48160        6.71740
H         -5.85390        1.53200        9.65980
H         -5.69420        0.40060       11.02940
H         -6.26030       -0.19010        9.44350
H          0.10040        4.28310        7.02650
H          1.06040        3.82110        8.43210
H         -0.84300        4.15160        9.93470
H         -1.87390        4.62560        8.58300
H          0.67120        6.08510        9.44330
H         -0.98030        6.62390        9.74460
H         -0.37000        6.54920        8.09510
