150
energy: -166.141801994367 gnorm: 0.000167719447 xtb: 6.7.1 (edcfbbe)_energy: -166.141801994367 gnorm: 0.000167719447 xtb: 6.7.1 (edcfbbe)
C          0.05650        3.81550        0.36370
C          0.53490       -3.36180        1.85700
C         -4.10870        1.55580       -1.49080
C         -3.47690        0.60470       -0.69710
C         -2.28230        0.94850       -0.00700
C         -1.64010        2.17600       -0.28950
C         -2.27640        3.10840       -1.11420
C         -3.49670        2.77700       -1.64580
C         -1.65130        0.05480        0.91120
C         -0.24420        0.18020        1.06410
C          0.38720        1.39470        0.70590
N         -0.39390        2.43890        0.25140
C         -2.29590       -0.95680        1.68680
C         -1.52520       -2.06370        2.11030
N         -0.16510       -2.08880        1.85870
C          0.49830       -0.91180        1.57210
C          1.87170       -0.75570        1.76720
C          2.45210        0.42340        1.36660
C          1.77530        1.48780        0.82200
C         -3.65060       -0.84260        2.10230
C         -4.26420       -1.91410        2.74190
C         -3.49830       -3.01970        3.02690
C         -2.15320       -3.11980        2.77740
O         -4.25200        0.34290        1.88570
O         -3.90400       -0.66660       -0.57280
H         -5.04230        1.36830       -1.98820
H         -1.84880        4.06280       -1.35420
H         -5.30100       -1.90550        3.02300
H         -1.62930       -3.99660        3.10600
H          2.48820       -1.50620        2.22590
H          2.33560        2.34380        0.49500
C          0.01870       -4.28080        0.74340
C          0.77600       -5.60260        0.74870
C         -0.84770        4.62490        1.30100
C         -0.34810        6.05960        1.41530
C         -5.59300        0.51450        2.29670
C         -5.07700       -1.06480       -1.25260
S         -4.37870        4.05580       -2.61980
F         -4.04540        5.24130       -1.49700
F         -3.01010        4.48510       -3.46140
F         -5.82570        3.74040       -1.85570
F         -5.16140        5.18540       -3.46410
F         -4.79040        2.98270       -3.82170
S         -4.33700       -4.46910        3.77380
F         -5.61680       -4.36430        2.71120
F         -5.17690       -3.53400        4.86260
F         -5.07790       -5.74960        4.41620
F         -3.57040       -5.53110        2.74300
F         -3.13000       -4.70330        4.89360
S          4.26760        0.58970        1.57590
F          4.55220       -0.94560        1.00220
F          4.46680        1.20360        0.04430
F          5.86170        0.73630        1.76000
F          4.13440        2.13900        2.16740
F          4.22230       -0.00980        3.12520
H          0.43940       -3.84940        2.83070
H          1.59170       -3.17880        1.67610
H          0.15770       -3.77820       -0.21580
H         -1.04700       -4.47170        0.87160
H          1.84180       -5.43800        0.60910
H          0.41960       -6.24230       -0.05320
H          0.62660       -6.12360        1.69080
H         -5.22270       -2.11060       -0.98620
H         -4.95820       -0.97460       -2.33570
H         -5.94430       -0.48160       -0.93260
H         -5.85390        1.53200        2.00980
H         -5.69420        0.40060        3.37940
H         -6.26030       -0.19010        1.79350
H          0.10040        4.28310       -0.62350
H          1.06040        3.82110        0.78210
H         -0.84300        4.15160        2.28470
H         -1.87390        4.62560        0.93300
H          0.67120        6.08510        1.79330
H         -0.98030        6.62390        2.09460
H         -0.37000        6.54920        0.44510
C          0.05650        3.81550        5.61370
C          0.53490       -3.36180        7.10700
C         -4.10870        1.55580        3.75920
C         -3.47690        0.60470        4.55290
C         -2.28230        0.94850        5.24300
C         -1.64010        2.17600        4.96050
C         -2.27640        3.10840        4.13580
C         -3.49670        2.77700        3.60420
C         -1.65130        0.05480        6.16120
C         -0.24420        0.18020        6.31410
C          0.38720        1.39470        5.95590
N         -0.39390        2.43890        5.50140
C         -2.29590       -0.95680        6.93680
C         -1.52520       -2.06370        7.36030
N         -0.16510       -2.08880        7.10870
C          0.49830       -0.91180        6.82210
C          1.87170       -0.75570        7.01720
C          2.45210        0.42340        6.61660
C          1.77530        1.48780        6.07200
C         -3.65060       -0.84260        7.35230
C         -4.26420       -1.91410        7.99190
C         -3.49830       -3.01970        8.27690
C         -2.15320       -3.11980        8.02740
O         -4.25200        0.34290        7.13570
O         -3.90400       -0.66660        4.67720
H         -5.04230        1.36830        3.26180
H         -1.84880        4.06280        3.89580
H         -5.30100       -1.90550        8.27300
H         -1.62930       -3.99660        8.35600
H          2.48820       -1.50620        7.47590
H          2.33560        2.34380        5.74500
C          0.01870       -4.28080        5.99340
C          0.77600       -5.60260        5.99870
C         -0.84770        4.62490        6.55100
C         -0.34810        6.05960        6.66530
C         -5.59300        0.51450        7.54670
C         -5.07700       -1.06480        3.99740
S         -4.37870        4.05580        2.63020
F         -4.04540        5.24130        3.75300
F         -3.01010        4.48510        1.78860
F         -5.82570        3.74040        3.39430
F         -5.16140        5.18540        1.78590
F         -4.79040        2.98270        1.42830
S         -4.33700       -4.46910        9.02380
F         -5.61680       -4.36430        7.96120
F         -5.17690       -3.53400       10.11260
F         -5.07790       -5.74960        9.66620
F         -3.57040       -5.53110        7.99300
F         -3.13000       -4.70330       10.14360
S          4.26760        0.58970        6.82590
F          4.55220       -0.94560        6.25220
F          4.46680        1.20360        5.29430
F          5.86170        0.73630        7.01000
F          4.13440        2.13900        7.41740
F          4.22230       -0.00980        8.37520
H          0.43940       -3.84940        8.08070
H          1.59170       -3.17880        6.92610
H          0.15770       -3.77820        5.03420
H         -1.04700       -4.47170        6.12160
H          1.84180       -5.43800        5.85910
H          0.41960       -6.24230        5.19680
H          0.62660       -6.12360        6.94080
H         -5.22270       -2.11060        4.26380
H         -4.95820       -0.97460        2.91430
H         -5.94430       -0.48160        4.31740
H         -5.85390        1.53200        7.25980
H         -5.69420        0.40060        8.62940
H         -6.26030       -0.19010        7.04350
H          0.10040        4.28310        4.62650
H          1.06040        3.82110        6.03210
H         -0.84300        4.15160        7.53470
H         -1.87390        4.62560        6.18300
H          0.67120        6.08510        7.04330
H         -0.98030        6.62390        7.34460
H         -0.37000        6.54920        5.69510
