202
energy: -39.531872691620 gnorm: 0.000909559434 xtb: 6.7.1 (edcfbbe)
C         -1.03900        4.10690        1.25310
C         -0.27670        3.40180        2.17410
C          1.14780        3.39300        2.01920
C          1.72810        4.36340        1.14890
C          0.89730        5.03910        0.23300
C         -0.46340        4.88900        0.27310
C          2.01350        2.58480        2.82640
C          3.31210        3.08510        2.99470
C          3.76150        4.18680        2.20700
N          3.01940        4.74580        1.23470
C          1.72640        1.30970        3.42100
C          2.70560        0.77450        4.31420
N          3.83630        1.42140        4.67780
C          4.17640        2.51030        3.97000
C          5.43930        3.08070        4.17100
C          5.86370        4.14180        3.40390
C          5.04970        4.68200        2.43630
C          0.65610        0.44040        2.99610
C          0.69800       -0.89640        3.37050
C          1.61910       -1.37850        4.27460
C          2.58320       -0.55080        4.76890
O         -0.88660        2.80450        3.26420
O         -0.42230        0.79270        2.20150
S         -1.52960        5.74290       -0.91800
S          1.54830       -3.12500        4.76720
S          7.50520        4.85970        3.66810
C         -1.95700       -1.48320        4.15880
C         -2.68450       -0.44820        3.57680
C         -3.80280       -0.77490        2.71800
C         -4.00230       -2.15270        2.39780
C         -3.09650       -3.11710        2.87270
C         -2.10770       -2.79520        3.75510
C         -4.85050        0.13370        2.33380
C         -6.04380       -0.42070        1.85600
C         -6.09070       -1.79710        1.49840
N         -5.06520       -2.63430        1.71530
C         -4.88590        1.55110        2.52180
C         -6.14410        2.21110        2.62610
N         -7.29980        1.63990        2.23100
C         -7.22210        0.38370        1.75120
C         -8.37530       -0.19930        1.21080
C         -8.38660       -1.51480        0.80400
C         -7.27150       -2.30630        0.94820
C         -3.70310        2.35790        2.52770
C         -3.77010        3.62810        3.09360
C         -4.99640        4.20160        3.38700
C         -6.16060        3.53580        3.10130
O         -2.20900        0.81540        3.88730
O         -2.57820        1.88040        1.88290
S         -0.98450       -4.09100        4.37110
S         -5.08190        5.86890        4.08410
S         -9.90520       -2.21040        0.11280
B         -1.51670        1.56750        2.82240
O          7.31450        6.14310        2.89330
O          7.24880        5.40200        5.23610
C          6.22730        6.33710        5.30540
O          1.51570       -3.74670        3.19750
C          2.72880       -3.59730        2.53760
O          3.01450       -3.30050        5.13060
O         -1.12190       -3.79340        5.85280
O         -2.07820       -5.36270        4.15750
C         -3.05930       -5.37800        5.13160
O        -10.83210       -1.79160        1.23480
O         -9.56680       -3.81200        0.51850
C         -9.97790       -4.13400        1.80340
O         -6.10790        6.43800        3.13070
O         -3.64580        6.41860        3.40510
C         -3.77790        6.72960        2.05750
O         -1.23870        4.87560       -2.12750
O         -2.98250        5.08310       -0.36550
C         -3.26760        3.85580       -0.95400
H         -9.80590       -5.19890        1.98160
H        -11.04270       -3.89910        1.90190
H         -9.40650       -3.53680        2.51670
H         -2.86640        7.22670        1.71560
H         -4.63640        7.39840        1.93540
H         -3.93620        5.81370        1.48140
H         -4.19290        3.45860       -0.52690
H         -2.44250        3.15980       -0.77400
H         -3.38150        4.00710       -2.03180
H         -2.58650       -5.63370        6.08370
H         -3.81690       -6.12230        4.87200
H         -3.50450       -4.38100        5.18940
H          3.51660       -4.04810        3.14920
H          2.93890       -2.53520        2.38740
H          2.67040       -4.10390        1.57040
H          6.21790        6.77840        6.30580
H          5.27530        5.83410        5.11360
H          6.40640        7.11390        4.55400
H         -9.27770        0.38370        1.15360
H         -7.32090       -3.34830        0.68660
H         -7.10430        4.03850        3.22100
H         -3.25230       -4.14750        2.60600
H         -2.86790        4.19140        3.24820
H         -1.22310       -1.22740        4.90420
H         -2.10770        4.04060        1.30740
H         -0.01140       -1.57080        2.92730
H          3.33040       -0.95040        5.43210
H          1.34520        5.69920       -0.48850
H          5.39790        5.52850        1.86990
H          6.08050        2.67310        4.93240
C          1.37010        3.46380       10.22030
C          1.44570        2.22090       10.84370
C          2.73750        1.66610       11.16200
C          3.86530        2.53430       10.99070
C          3.71840        3.76510       10.32470
C          2.48840        4.23410        9.97610
C          2.96760        0.38910       11.80400
C          4.16820        0.30600       12.54070
C          5.16500        1.32060       12.43030
N          5.06780        2.34050       11.56840
C          2.20060       -0.83400       11.73370
C          2.62330       -1.92520       12.56010
N          3.61830       -1.86400       13.46750
C          4.41730       -0.79320       13.41480
C          5.56680       -0.79200       14.21670
C          6.49630        0.21530       14.12000
C          6.31150        1.24530       13.23110
C          1.17060       -1.12630       10.76850
C          0.72610       -2.43390       10.60650
C          1.15240       -3.46150       11.41920
C          2.05500       -3.20120       12.40180
O          0.25320        1.67100       11.27880
O          0.55840       -0.21250        9.93710
S          2.33980        5.90570        9.29230
S          0.52480       -5.15950       11.21170
S          7.97060        0.19660       15.16670
C         -1.87620       -2.20800       11.73460
C         -2.22960       -1.08900       10.98890
C         -3.29610       -1.18850       10.01920
C         -3.85020       -2.49540        9.81220
C         -3.40100       -3.58880       10.57480
C         -2.43010       -3.44750       11.51620
C         -3.99840       -0.08130        9.41200
C         -5.23030       -0.39120        8.80000
C         -5.58330       -1.74380        8.52050
N         -4.85680       -2.77980        8.95700
C         -3.71760        1.32830        9.52180
C         -4.80880        2.24060        9.36830
N         -6.00400        1.91430        8.84660
C         -6.18090        0.63320        8.50200
C         -7.40430        0.28420        7.91540
C         -7.70050       -1.01960        7.60120
C         -6.79680       -2.01800        7.87520
C         -2.41610        1.91140        9.74010
C         -2.33560        3.22870       10.18690
C         -3.44570        4.05080       10.19560
C         -4.64410        3.58190        9.74720
O         -1.48770        0.02590       11.32690
O         -1.24600        1.26020        9.39850
S         -1.85740       -4.88900       12.46300
S         -3.36140        5.77690       10.71760
S         -9.31960       -1.40100        6.88620
B         -0.47190        0.68220       10.48240
O          8.30360        1.67110       15.10090
O          7.15760        0.10340       16.63490
C          6.51080        1.28890       16.95720
O          1.16970       -5.44690        9.67800
C          2.55760       -5.49360        9.67580
O          1.54910       -5.87970       12.07150
O         -1.12090       -4.13140       13.55840
O         -3.34110       -5.20520       13.21250
C         -3.64360       -4.27670       14.19970
O        -10.17070       -0.79050        7.97920
O         -9.30840       -3.02880        7.32010
C         -9.76070       -3.22240        8.61830
O         -4.32760        6.34910        9.70070
O         -1.88420        6.13610       10.00700
C         -1.92930        6.09460        8.62020
O          3.34710        5.79350        8.16750
O          0.89760        5.65140        8.48110
C          1.05630        4.77990        7.42520
H         -9.76300       -4.29210        8.84450
H        -10.77530       -2.81780        8.69410
H         -9.10690       -2.69060        9.31550
H         -1.00600        6.53350        8.23210
H         -2.79060        6.67250        8.27280
H         -2.01630        5.05840        8.28410
H          0.06920        4.45820        7.08560
H          1.63300        3.90880        7.74520
H          1.60050        5.29810        6.63000
H         -4.55490       -4.59090       14.71540
H         -3.79190       -3.29330       13.74560
H         -2.80700       -4.23730       14.90500
H          2.88880       -6.22290       10.42200
H          2.95380       -4.50090        9.90810
H          2.89390       -5.78870        8.67780
H          6.08660        1.19840       17.96120
H          5.71410        1.48350       16.23410
H          7.24300        2.10290       16.93200
H         -8.13530        1.05370        7.73690
H         -7.06290       -3.04120        7.68070
H         -5.47890        4.25560        9.66230
H         -3.88190       -4.54230       10.44900
H         -1.38430        3.63240       10.46910
H         -1.12370       -2.10050       12.49660
H          0.41150        3.87040        9.96660
H         -0.00990       -2.63500        9.84960
H          2.39560       -4.01090       13.02470
H          4.58900        4.37610       10.16330
H          7.04150        2.03460       13.18250
H          5.72040       -1.60070       14.90930
