202
energy: -39.531872691620 gnorm: 0.000909559434 xtb: 6.7.1 (edcfbbe)
C         -1.03900        4.10690        1.25310
C         -0.27670        3.40180        2.17410
C          1.14780        3.39300        2.01920
C          1.72810        4.36340        1.14890
C          0.89730        5.03910        0.23300
C         -0.46340        4.88900        0.27310
C          2.01350        2.58480        2.82640
C          3.31210        3.08510        2.99470
C          3.76150        4.18680        2.20700
N          3.01940        4.74580        1.23470
C          1.72640        1.30970        3.42100
C          2.70560        0.77450        4.31420
N          3.83630        1.42140        4.67780
C          4.17640        2.51030        3.97000
C          5.43930        3.08070        4.17100
C          5.86370        4.14180        3.40390
C          5.04970        4.68200        2.43630
C          0.65610        0.44040        2.99610
C          0.69800       -0.89640        3.37050
C          1.61910       -1.37850        4.27460
C          2.58320       -0.55080        4.76890
O         -0.88660        2.80450        3.26420
O         -0.42230        0.79270        2.20150
S         -1.52960        5.74290       -0.91800
S          1.54830       -3.12500        4.76720
S          7.50520        4.85970        3.66810
C         -1.95700       -1.48320        4.15880
C         -2.68450       -0.44820        3.57680
C         -3.80280       -0.77490        2.71800
C         -4.00230       -2.15270        2.39780
C         -3.09650       -3.11710        2.87270
C         -2.10770       -2.79520        3.75510
C         -4.85050        0.13370        2.33380
C         -6.04380       -0.42070        1.85600
C         -6.09070       -1.79710        1.49840
N         -5.06520       -2.63430        1.71530
C         -4.88590        1.55110        2.52180
C         -6.14410        2.21110        2.62610
N         -7.29980        1.63990        2.23100
C         -7.22210        0.38370        1.75120
C         -8.37530       -0.19930        1.21080
C         -8.38660       -1.51480        0.80400
C         -7.27150       -2.30630        0.94820
C         -3.70310        2.35790        2.52770
C         -3.77010        3.62810        3.09360
C         -4.99640        4.20160        3.38700
C         -6.16060        3.53580        3.10130
O         -2.20900        0.81540        3.88730
O         -2.57820        1.88040        1.88290
S         -0.98450       -4.09100        4.37110
S         -5.08190        5.86890        4.08410
S         -9.90520       -2.21040        0.11280
B         -1.51670        1.56750        2.82240
O          7.31450        6.14310        2.89330
O          7.24880        5.40200        5.23610
C          6.22730        6.33710        5.30540
O          1.51570       -3.74670        3.19750
C          2.72880       -3.59730        2.53760
O          3.01450       -3.30050        5.13060
O         -1.12190       -3.79340        5.85280
O         -2.07820       -5.36270        4.15750
C         -3.05930       -5.37800        5.13160
O        -10.83210       -1.79160        1.23480
O         -9.56680       -3.81200        0.51850
C         -9.97790       -4.13400        1.80340
O         -6.10790        6.43800        3.13070
O         -3.64580        6.41860        3.40510
C         -3.77790        6.72960        2.05750
O         -1.23870        4.87560       -2.12750
O         -2.98250        5.08310       -0.36550
C         -3.26760        3.85580       -0.95400
H         -9.80590       -5.19890        1.98160
H        -11.04270       -3.89910        1.90190
H         -9.40650       -3.53680        2.51670
H         -2.86640        7.22670        1.71560
H         -4.63640        7.39840        1.93540
H         -3.93620        5.81370        1.48140
H         -4.19290        3.45860       -0.52690
H         -2.44250        3.15980       -0.77400
H         -3.38150        4.00710       -2.03180
H         -2.58650       -5.63370        6.08370
H         -3.81690       -6.12230        4.87200
H         -3.50450       -4.38100        5.18940
H          3.51660       -4.04810        3.14920
H          2.93890       -2.53520        2.38740
H          2.67040       -4.10390        1.57040
H          6.21790        6.77840        6.30580
H          5.27530        5.83410        5.11360
H          6.40640        7.11390        4.55400
H         -9.27770        0.38370        1.15360
H         -7.32090       -3.34830        0.68660
H         -7.10430        4.03850        3.22100
H         -3.25230       -4.14750        2.60600
H         -2.86790        4.19140        3.24820
H         -1.22310       -1.22740        4.90420
H         -2.10770        4.04060        1.30740
H         -0.01140       -1.57080        2.92730
H          3.33040       -0.95040        5.43210
H          1.34520        5.69920       -0.48850
H          5.39790        5.52850        1.86990
H          6.08050        2.67310        4.93240
C          1.37010        3.46380       10.37030
C          1.44570        2.22090       10.99370
C          2.73750        1.66610       11.31200
C          3.86530        2.53430       11.14070
C          3.71840        3.76510       10.47470
C          2.48840        4.23410       10.12610
C          2.96760        0.38910       11.95400
C          4.16820        0.30600       12.69070
C          5.16500        1.32060       12.58030
N          5.06780        2.34050       11.71840
C          2.20060       -0.83400       11.88370
C          2.62330       -1.92520       12.71010
N          3.61830       -1.86400       13.61750
C          4.41730       -0.79320       13.56480
C          5.56680       -0.79200       14.36670
C          6.49630        0.21530       14.27000
C          6.31150        1.24530       13.38110
C          1.17060       -1.12630       10.91850
C          0.72610       -2.43390       10.75650
C          1.15240       -3.46150       11.56920
C          2.05500       -3.20120       12.55180
O          0.25320        1.67100       11.42880
O          0.55840       -0.21250       10.08710
S          2.33980        5.90570        9.44230
S          0.52480       -5.15950       11.36170
S          7.97060        0.19660       15.31670
C         -1.87620       -2.20800       11.88460
C         -2.22960       -1.08900       11.13890
C         -3.29610       -1.18850       10.16920
C         -3.85020       -2.49540        9.96220
C         -3.40100       -3.58880       10.72480
C         -2.43010       -3.44750       11.66620
C         -3.99840       -0.08130        9.56200
C         -5.23030       -0.39120        8.95000
C         -5.58330       -1.74380        8.67050
N         -4.85680       -2.77980        9.10700
C         -3.71760        1.32830        9.67180
C         -4.80880        2.24060        9.51830
N         -6.00400        1.91430        8.99660
C         -6.18090        0.63320        8.65200
C         -7.40430        0.28420        8.06540
C         -7.70050       -1.01960        7.75120
C         -6.79680       -2.01800        8.02520
C         -2.41610        1.91140        9.89010
C         -2.33560        3.22870       10.33690
C         -3.44570        4.05080       10.34560
C         -4.64410        3.58190        9.89720
O         -1.48770        0.02590       11.47690
O         -1.24600        1.26020        9.54850
S         -1.85740       -4.88900       12.61300
S         -3.36140        5.77690       10.86760
S         -9.31960       -1.40100        7.03620
B         -0.47190        0.68220       10.63240
O          8.30360        1.67110       15.25090
O          7.15760        0.10340       16.78490
C          6.51080        1.28890       17.10720
O          1.16970       -5.44690        9.82800
C          2.55760       -5.49360        9.82580
O          1.54910       -5.87970       12.22150
O         -1.12090       -4.13140       13.70840
O         -3.34110       -5.20520       13.36250
C         -3.64360       -4.27670       14.34970
O        -10.17070       -0.79050        8.12920
O         -9.30840       -3.02880        7.47010
C         -9.76070       -3.22240        8.76830
O         -4.32760        6.34910        9.85070
O         -1.88420        6.13610       10.15700
C         -1.92930        6.09460        8.77020
O          3.34710        5.79350        8.31750
O          0.89760        5.65140        8.63110
C          1.05630        4.77990        7.57520
H         -9.76300       -4.29210        8.99450
H        -10.77530       -2.81780        8.84410
H         -9.10690       -2.69060        9.46550
H         -1.00600        6.53350        8.38210
H         -2.79060        6.67250        8.42280
H         -2.01630        5.05840        8.43410
H          0.06920        4.45820        7.23560
H          1.63300        3.90880        7.89520
H          1.60050        5.29810        6.78000
H         -4.55490       -4.59090       14.86540
H         -3.79190       -3.29330       13.89560
H         -2.80700       -4.23730       15.05500
H          2.88880       -6.22290       10.57200
H          2.95380       -4.50090       10.05810
H          2.89390       -5.78870        8.82780
H          6.08660        1.19840       18.11120
H          5.71410        1.48350       16.38410
H          7.24300        2.10290       17.08200
H         -8.13530        1.05370        7.88690
H         -7.06290       -3.04120        7.83070
H         -5.47890        4.25560        9.81230
H         -3.88190       -4.54230       10.59900
H         -1.38430        3.63240       10.61910
H         -1.12370       -2.10050       12.64660
H          0.41150        3.87040       10.11660
H         -0.00990       -2.63500        9.99960
H          2.39560       -4.01090       13.17470
H          4.58900        4.37610       10.31330
H          7.04150        2.03460       13.33250
H          5.72040       -1.60070       15.05930
