202
 energy: -414.309505724158 gnorm: 0.000736017946 xtb: 6.7.1 (edcfbbe)
C           -0.71776642547636        3.44389380062427        3.82190950454146
C           -0.27338157369218        2.12276984379049        3.74039211920760
C            1.12095262405779        1.86254148762942        3.84162745958887
C            1.97977168925713        3.00946960647501        4.06500772010181
C            1.48904016590020        4.33049035600270        3.88849209204450
C            0.14900563108480        4.52949430978336        3.77649666590789
C            1.75869226714727        0.57537001268028        3.87414560126002
C            3.03439423733849        0.54626018232418        4.48954778388937
C            3.75664965059522        1.74493550607602        4.73753266078681
N            3.24752501534034        2.93590651603807        4.43872541251142
C            1.34386531135272       -0.67682955159515        3.28973178035904
C            2.07043425160336       -1.85371539844642        3.70296984218516
N            3.08697530083668       -1.84899496787722        4.55485439552682
C            3.65070028072840       -0.68517689462939        4.84768709769209
C            4.90361396757822       -0.69466811670695        5.49344481431399
C            5.60542921343518        0.48279798417241        5.66889122741494
C            5.05924402834638        1.68812694914673        5.27976739041341
C            0.44890517847612       -0.84933755769875        2.19994356052230
C            0.43338852124136       -2.06530255088599        1.50481366589021
C            1.11391097168439       -3.18844374224042        1.95320052316320
C            1.85751769425319       -3.11548020198681        3.09451054426070
O           -1.20838853461988        1.18116676129749        3.64532952522854
O           -0.32877269964057        0.10873395772330        1.69603868223548
S           -0.51361815247173        6.12781164633853        3.14636787506497
S            1.20691967511798       -4.75120894208780        1.02123783516636
S            7.27004808520332        0.33858118292054        6.46381899680090
C           -2.23434684534534       -2.75843709158368        2.21046273125856
C           -2.83687637371323       -1.51516596893609        1.99044272163360
C           -3.86472218573954       -1.38176373186246        1.01148261243359
C           -4.15809692341280       -2.57106399836701        0.24139309111031
C           -3.42536975073185       -3.76834622808500        0.41824169660154
C           -2.51195108527299       -3.86517785492104        1.42280537723107
C           -4.73675020076768       -0.24956916240511        0.80812407537994
C           -5.89770189501503       -0.49798794663881        0.03336999311332
C           -6.03958166231183       -1.69898519198656       -0.71868992498496
N           -5.15183012291558       -2.67971503338640       -0.63276491721641
C           -4.63317720792052        1.09855708267633        1.32208844808979
C           -5.86956267306523        1.84961896409332        1.39084420860416
N           -6.98526948303450        1.50707840266394        0.76738484288793
C           -6.97470214740968        0.43594030532594       -0.01476413453283
C           -8.07981210546070        0.20844962665699       -0.85828369778746
C           -8.12958776279484       -0.91532891043811       -1.65575683928130
C           -7.13949224419462       -1.86871718602793       -1.59055548852057
C           -3.45260171564936        1.82895451647278        1.61709512014043
C           -3.55252267143468        3.15490952510989        2.05408673709590
C           -4.77013647272580        3.76292669301744        2.32819550514418
C           -5.92953423163165        3.11648107784198        2.02333417057429
O           -2.46786341378193       -0.53503304131077        2.81594923523058
O           -2.22292925747059        1.36071992914679        1.39557719497117
S           -1.67157082026547       -5.47571029600461        1.62444163672796
S           -4.88154739092786        5.43905657344169        3.09607482601355
S           -9.55560217220458       -1.17535034553197       -2.81167986495423
B           -1.54342655809762        0.53393094105678        2.39219278909192
O            8.00828822186598       -0.50515246901724        5.55180969162074
O            7.79558907425229        1.91968431721922        6.21417316186891
C            8.53525946551951        2.19230973177475        5.04238732668946
O           -0.22718323480789       -4.46678131472274        0.11724062624692
C           -0.16691762389692       -4.78831496368795       -1.25086618915120
O            2.28650865937251       -4.50572496946575        0.08219241424467
O           -0.63020768597457       -5.23300232197741        2.62456738097311
O           -2.91422948967528       -6.24389134761255        2.41899093029080
C           -3.05203206613315       -6.08404725900365        3.81304912498752
O          -10.29688604334533        0.06330059081643       -2.72041324248159
O          -10.33400201041886       -2.32153084682083       -1.90475339505878
C          -11.07977973983625       -1.86365423308567       -0.79775128450336
O           -6.00343298256056        6.02189397690000        2.39513901757257
O           -3.49742471374383        6.07160484029181        2.42192695705813
C           -3.59991224426731        6.50393250937907        1.08766964343165
O            0.69293483788829        6.89365289314070        2.89630118963423
O           -0.90569606137213        5.41041341630914        1.67539054684100
C            0.14670381465665        5.08996804064596        0.80676504522577
H          -11.86684352106264       -2.59335953666439       -0.61585037164001
H          -11.52671954113601       -0.89216434419288       -1.02982865632197
H          -10.43631844766062       -1.77002470939846        0.07925410647389
H           -2.93100841434336        7.35353022665775        0.96017116657456
H           -4.63175899798268        6.80615722067312        0.88096691524175
H           -3.30983376882902        5.70255619618365        0.40435038232125
H           -0.19255828334395        5.26529379972368       -0.21455929274572
H            0.43642843488769        4.04036319273138        0.92038193111819
H            1.00673757108397        5.73378955466197        1.01759886701815
H           -3.71977103855309       -6.87339677318833        4.15672628146743
H           -3.46592745736784       -5.10109415533150        4.05787559084284
H           -2.07325798339215       -6.19536058527583        4.28809876776006
H           -0.53719758777721       -5.80195265437378       -1.42412577711295
H            0.86952773801836       -4.70966918373796       -1.59336921917013
H           -0.78582075610039       -4.07176210639415       -1.79205387580368
H            9.25764420507262        2.96625604680519        5.29442175189874
H            7.87325852428931        2.54481325257554        4.24784944636771
H            9.04688341338811        1.28456827791368        4.70942407949886
H           -8.88056342168318        0.93212251671144       -0.88118916401187
H           -7.18085449313138       -2.76724032436267       -2.18543735686059
H           -6.88859609630306        3.59790897372459        2.11834259700054
H           -3.67619564575661       -4.60699462824452       -0.20992506707768
H           -2.63947265143658        3.72252445582466        2.13119864030638
H           -1.53343775404586       -2.84811975097693        3.02586701481042
H           -1.78024863875665        3.61403798273244        3.86210173646542
H           -0.14973857140652       -2.10515506932984        0.59809846552968
H            2.42439363273689       -3.94818492612844        3.47603716187566
H            2.19084497873451        5.14845515772459        3.87330984667454
H            5.60193482488971        2.61480591284309        5.38000403981674
H            5.32013420489348       -1.64947047020746        5.77296131814465
C           -0.49845099865350        4.22173862335793        7.75381037275304
C            0.24539388559248        3.04991684603132        7.84843437469603
C            1.62148319627615        3.06592009117957        7.53462383798144
C            2.19310388186715        4.33730553132683        7.16896796756917
C            1.35811661821130        5.44626895859246        6.88379016715090
C            0.03210255613191        5.38221736782195        7.20029518199083
C            2.51900107511274        1.95965816900294        7.72859738388910
C            3.86280633244262        2.33532168062178        7.95110296256918
C            4.31503603876983        3.65005712909214        7.62744367309961
N            3.49771765710505        4.58096491320922        7.15499617341906
C            2.25359384047963        0.54378581925966        7.70409716395213
C            3.29252068143983       -0.30538530553905        8.24521151949025
N            4.46011384321166        0.13281199042908        8.70163273302152
C            4.79703974754319        1.39747737228534        8.47360628425345
C            6.13052747821437        1.79284064755151        8.70687116595569
C            6.56523197051849        3.02444164169770        8.26379130058507
C            5.69496037603159        3.94105318162180        7.72093861856402
C            1.17772034659976       -0.12201745829010        7.04842359820916
C            1.23451553228477       -1.51229330055155        6.87302544585099
C            2.19313121697667       -2.30669446441466        7.48496792635395
C            3.17835575261478       -1.71769399117875        8.22216023995262
O           -0.37286485396691        1.94569219449601        8.26939370114420
O            0.14941532632619        0.48563192317498        6.45840300581291
S           -1.12834555091735        6.78660256945751        6.95982211919004
S            2.28702973628464       -4.12998792158050        7.38302679103918
S            8.38337711330466        3.32598714725937        8.21654069541925
C           -1.43265746323493       -1.95020082666370        7.97384592470854
C           -2.10692229485591       -0.92664795942412        7.30995281144351
C           -2.92143960524789       -1.19374489051312        6.17870626884147
C           -2.96240169594425       -2.57710636141043        5.76749129395728
C           -2.20813588480570       -3.57739146706568        6.42960436539304
C           -1.47516512835736       -3.26297602105810        7.53189171374139
C           -3.78440672061130       -0.25900900816190        5.48983913832273
C           -4.73364949591038       -0.86606730523550        4.62581644259043
C           -4.63071166690203       -2.23730836058625        4.25091879871194
N           -3.72977828155036       -3.04586210502520        4.78950237443476
C           -3.89014513941961        1.18222853173204        5.61366593769482
C           -5.15798851608521        1.75052387898358        5.19250420675939
N           -6.08630673574550        1.10299439059081        4.50079971543137
C           -5.84269717117477       -0.13867549324557        4.11016527225066
C           -6.74793439906647       -0.74055243562862        3.20878299783547
C           -6.53824377167362       -2.03033629020095        2.77880330837573
C           -5.50017939837628       -2.78331818737514        3.28072238292374
C           -2.90490119705685        2.15034551911039        5.99304616432422
C           -3.26807215664089        3.50127197888704        6.08320860755291
C           -4.55206740410316        3.97181998812386        5.86647213306116
C           -5.50507497059416        3.10528723089117        5.42482594594573
O           -1.94645813731780        0.29588353898160        7.81784558126074
O           -1.60721835403662        1.95705499242810        6.17332993901748
S           -0.52080156157022       -4.56167364426118        8.38045046729090
S           -4.98724205820263        5.69474407177273        6.26416991443631
S           -7.64473767485009       -2.79668482020511        1.53338783442749
B           -0.95745577661335        1.14768891855662        7.18390647582176
O            8.51210949158439        4.52030289112744        7.41071455007142
O            8.52413823931352        3.79094151704309        9.81750654656599
C            8.07229045303083        5.07757342412558       10.15300783399656
O            0.84243268297490       -4.31101044594940        6.47397590260950
C            0.84421518728181       -5.40691202244906        5.58537687814769
O            3.37026982934937       -4.37700577396977        6.45077119804542
O            0.51982922871608       -3.82522957045467        9.09298186147692
O           -1.68914455869425       -4.91368348913539        9.51902138230558
C           -1.89397675168997       -4.00643833532198       10.57396795266454
O           -8.62600926963324       -1.75543715692029        1.27940775568854
O           -8.33486825386917       -3.89575974013555        2.56578555543115
C           -9.22767918767364       -3.38904996341256        3.52624761701260
O           -6.14127998949002        5.98731543783735        5.44052122970832
O           -3.61831240437018        6.31363143207386        5.49629787768273
C           -3.74194378198333        7.65620823296425        5.07886653322119
O           -0.64223046974306        7.82725239888257        7.84464408203369
O           -0.58633705552117        7.17076414065760        5.40256531986623
C           -0.08528547195801        8.47797237671542        5.22123745896028
H           -9.93952057337045       -4.17861684054316        3.76152082175523
H           -9.76181987248604       -2.52504684098311        3.11865037377865
H           -8.69157522310380       -3.09029097869542        4.43205298454951
H           -3.52133634430179        8.33877637724430        5.90439834494984
H           -4.75299412247730        7.84209226663748        4.70522894649760
H           -3.02793802295460        7.79764952965294        4.26973857833540
H           -0.84042356906911        9.10471051074033        4.74208347177646
H            0.79096418259433        8.40920753830381        4.57961869264376
H            0.18468642492037        8.91208828246038        6.18814152965568
H           -2.27455114335018       -4.57213864562804       11.42380717392254
H           -2.61725883709533       -3.23644394247250       10.28801839401708
H           -0.94444988766853       -3.53458593333019       10.84241214544902
H            0.39490350289519       -6.28112403353645        6.06590234990539
H            1.87337432077285       -5.63686301840629        5.29688414671673
H            0.27717243198223       -5.13346603749172        4.69387176562361
H            8.64753068379875        5.41861253094483       11.01261226723970
H            7.00693171278216        5.05929406663220       10.40468520670221
H            8.23482136089793        5.75855619905120        9.31158165561690
H           -7.59080493671330       -0.16831321388533        2.85176784168967
H           -5.35254380654622       -3.80567476374288        2.96926175346087
H           -6.50184325075327        3.42652312963996        5.17155968664322
H           -2.27668999798632       -4.58631171708122        6.06101455453948
H           -2.48629278787371        4.20330587366024        6.31549700836843
H           -0.83142969326968       -1.68584071452945        8.83086214538246
H           -1.51329356408773        4.19331247965347        8.11787493124587
H            0.48035750469215       -1.96156350968647        6.24742574230009
H            3.95577093732727       -2.29175971910870        8.69906811424784
H            1.82050756518965        6.34569654654403        6.51282453823106
H            6.06039450913645        4.88425671900663        7.34342947813368
H            6.80075680167219        1.09945531640279        9.18758020705773
