192
energy: -124.627455569363 gnorm: 0.000162118846 xtb: 6.7.1 (edcfbbe)_energy: -124.627455569363 gnorm: 0.000162118846 xtb: 6.7.1 (edcfbbe)
C         -0.09570        3.44270       -3.91550
C          1.81820       -2.66240       -0.57610
C         -4.38630        1.09070       -2.75860
C         -3.38140        0.31410       -2.21530
C         -2.06440        0.82340       -2.11900
C         -1.75000        2.00000       -2.83370
C         -2.79150        2.77480       -3.34090
C         -4.11390        2.35800       -3.26990
C         -1.04940        0.18500       -1.34810
C          0.30000        0.49900       -1.65830
C          0.61670        1.62750       -2.44100
N         -0.41760        2.37490       -2.99360
C         -1.26860       -0.65500       -0.21060
C         -0.24160       -1.55060        0.16690
N          0.98190       -1.48580       -0.48930
C          1.33300       -0.32040       -1.16260
C          2.65520        0.05200       -1.35390
C          2.98010        1.20650       -2.05810
C          1.95630        1.97180       -2.60400
C         -2.41310       -0.60940        0.60930
C         -2.61100       -1.54600        1.60980
C         -1.66130       -2.51870        1.88760
C         -0.45920       -2.46730        1.18630
O         -3.38470        0.37470        0.47260
O         -3.54250       -0.98190       -1.82180
H         -5.39430        0.71210       -2.78130
H         -2.58000        3.73350       -3.77480
H         -3.52910       -1.47310        2.16850
H          0.32740       -3.15210        1.45410
H          3.44200       -0.54330       -0.92020
H          2.21870        2.86220       -3.14210
C          1.09680       -3.81040       -1.29290
C          1.97690       -5.05070       -1.37000
C          0.05300        4.79720       -3.21520
C          0.39600        5.89990       -4.20780
C         -2.95460        1.66900        0.81950
C         -4.84330       -1.46710       -1.62440
C         -5.26830        3.21590       -3.76530
C         -5.99000        2.48800       -4.90880
C         -6.24390        3.45110       -2.60310
C         -4.81860        4.58390       -4.28710
C         -1.85820       -3.59140        2.94690
C         -1.68270       -4.97270        2.29900
C         -3.25120       -3.53870        3.57940
C         -0.81780       -3.40610        4.06070
C          4.44570        1.59250       -2.19830
C          4.65470        2.87270       -3.01270
C          5.20240        0.45770       -2.90380
C          5.03800        1.82050       -0.80000
H          6.24750        0.72930       -3.03790
H          4.76620        0.26720       -3.88230
H          5.16360       -0.46310       -2.32870
H          5.71930        3.08970       -3.07690
H          4.16930        3.72320       -2.53940
H          4.27520        2.75970       -4.02580
H          6.08490        2.10740       -0.87670
H          4.97440        0.92280       -0.19170
H          4.49760        2.61490       -0.28960
H         -0.95910       -4.15660        4.83610
H         -0.92090       -2.42060        4.50980
H          0.19420       -3.49970        3.67650
H         -3.35690       -4.35030        4.29710
H         -4.02480       -3.65150        2.82370
H         -3.40520       -2.60150        4.10850
H         -5.69050        5.15680       -4.59750
H         -4.16430        4.47960       -5.14970
H         -4.30480        5.14910       -3.51290
H         -7.08330        4.06050       -2.93230
H         -5.73860        3.96830       -1.78990
H         -6.63320        2.51320       -2.21790
H         -6.80320        3.10180       -5.29130
H         -6.40690        1.54200       -4.57580
H         -5.29610        2.28650       -5.72240
H         -1.85130       -5.75730        3.03400
H         -0.68230       -5.09750        1.89400
H         -2.39700       -5.09900        1.48820
H          2.14610       -2.98450        0.41930
H          2.70810       -2.41080       -1.15230
H          0.83170       -3.47870       -2.29890
H          0.16960       -4.04630       -0.76920
H          2.89740       -4.83710       -1.90940
H          1.45640       -5.85400       -1.88520
H          2.23850       -5.39770       -0.37230
H         -3.78080        2.33840        0.58300
H         -2.07050        1.97660        0.25290
H         -2.72760        1.73130        1.89150
H         -4.72400       -2.45710       -1.18590
H         -5.39300       -1.55670       -2.56910
H         -5.40030       -0.83030       -0.93100
H         -0.87490        3.50030       -4.67840
H          0.82890        3.19250       -4.44140
H          0.83490        4.72320       -2.45680
H         -0.87910        5.03760       -2.70030
H          1.33340        5.68090       -4.71510
H          0.49760        6.85460       -3.69800
H         -0.38450        5.99440       -4.96000
C         -0.09570        3.44270        0.48450
C          1.81820       -2.66240        3.82390
C         -4.38630        1.09070        1.64140
C         -3.38140        0.31410        2.18470
C         -2.06440        0.82340        2.28100
C         -1.75000        2.00000        1.56630
C         -2.79150        2.77480        1.05910
C         -4.11390        2.35800        1.13010
C         -1.04940        0.18500        3.05190
C          0.30000        0.49900        2.74170
C          0.61670        1.62750        1.95900
N         -0.41760        2.37490        1.40640
C         -1.26860       -0.65500        4.18940
C         -0.24160       -1.55060        4.56690
N          0.98190       -1.48580        3.91070
C          1.33300       -0.32040        3.23740
C          2.65520        0.05200        3.04610
C          2.98010        1.20650        2.34190
C          1.95630        1.97180        1.79600
C         -2.41310       -0.60940        5.00930
C         -2.61100       -1.54600        6.00980
C         -1.66130       -2.51870        6.28760
C         -0.45920       -2.46730        5.58630
O         -3.38470        0.37470        4.87260
O         -3.54250       -0.98190        2.57820
H         -5.39430        0.71210        1.61870
H         -2.58000        3.73350        0.62520
H         -3.52910       -1.47310        6.56850
H          0.32740       -3.15210        5.85410
H          3.44200       -0.54330        3.47980
H          2.21870        2.86220        1.25790
C          1.09680       -3.81040        3.10710
C          1.97690       -5.05070        3.03000
C          0.05300        4.79720        1.18480
C          0.39600        5.89990        0.19220
C         -2.95460        1.66900        5.21950
C         -4.84330       -1.46710        2.77560
C         -5.26830        3.21590        0.63470
C         -5.99000        2.48800       -0.50880
C         -6.24390        3.45110        1.79690
C         -4.81860        4.58390        0.11290
C         -1.85820       -3.59140        7.34690
C         -1.68270       -4.97270        6.69900
C         -3.25120       -3.53870        7.97940
C         -0.81780       -3.40610        8.46070
C          4.44570        1.59250        2.20170
C          4.65470        2.87270        1.38730
C          5.20240        0.45770        1.49620
C          5.03800        1.82050        3.60000
H          6.24750        0.72930        1.36210
H          4.76620        0.26720        0.51770
H          5.16360       -0.46310        2.07130
H          5.71930        3.08970        1.32310
H          4.16930        3.72320        1.86060
H          4.27520        2.75970        0.37420
H          6.08490        2.10740        3.52330
H          4.97440        0.92280        4.20830
H          4.49760        2.61490        4.11040
H         -0.95910       -4.15660        9.23610
H         -0.92090       -2.42060        8.90980
H          0.19420       -3.49970        8.07650
H         -3.35690       -4.35030        8.69710
H         -4.02480       -3.65150        7.22370
H         -3.40520       -2.60150        8.50850
H         -5.69050        5.15680       -0.19750
H         -4.16430        4.47960       -0.74970
H         -4.30480        5.14910        0.88710
H         -7.08330        4.06050        1.46770
H         -5.73860        3.96830        2.61010
H         -6.63320        2.51320        2.18210
H         -6.80320        3.10180       -0.89130
H         -6.40690        1.54200       -0.17580
H         -5.29610        2.28650       -1.32240
H         -1.85130       -5.75730        7.43400
H         -0.68230       -5.09750        6.29400
H         -2.39700       -5.09900        5.88820
H          2.14610       -2.98450        4.81930
H          2.70810       -2.41080        3.24770
H          0.83170       -3.47870        2.10110
H          0.16960       -4.04630        3.63080
H          2.89740       -4.83710        2.49060
H          1.45640       -5.85400        2.51480
H          2.23850       -5.39770        4.02770
H         -3.78080        2.33840        4.98300
H         -2.07050        1.97660        4.65290
H         -2.72760        1.73130        6.29150
H         -4.72400       -2.45710        3.21410
H         -5.39300       -1.55670        1.83090
H         -5.40030       -0.83030        3.46900
H         -0.87490        3.50030       -0.27840
H          0.82890        3.19250       -0.04140
H          0.83490        4.72320        1.94320
H         -0.87910        5.03760        1.69970
H          1.33340        5.68090       -0.31510
H          0.49760        6.85460        0.70200
H         -0.38450        5.99440       -0.56000
