192
energy: -124.627455569363 gnorm: 0.000162118846 xtb: 6.7.1 (edcfbbe)_energy: -124.627455569363 gnorm: 0.000162118846 xtb: 6.7.1 (edcfbbe)
C         -0.09570        3.44270       -3.91550
C          1.81820       -2.66240       -0.57610
C         -4.38630        1.09070       -2.75860
C         -3.38140        0.31410       -2.21530
C         -2.06440        0.82340       -2.11900
C         -1.75000        2.00000       -2.83370
C         -2.79150        2.77480       -3.34090
C         -4.11390        2.35800       -3.26990
C         -1.04940        0.18500       -1.34810
C          0.30000        0.49900       -1.65830
C          0.61670        1.62750       -2.44100
N         -0.41760        2.37490       -2.99360
C         -1.26860       -0.65500       -0.21060
C         -0.24160       -1.55060        0.16690
N          0.98190       -1.48580       -0.48930
C          1.33300       -0.32040       -1.16260
C          2.65520        0.05200       -1.35390
C          2.98010        1.20650       -2.05810
C          1.95630        1.97180       -2.60400
C         -2.41310       -0.60940        0.60930
C         -2.61100       -1.54600        1.60980
C         -1.66130       -2.51870        1.88760
C         -0.45920       -2.46730        1.18630
O         -3.38470        0.37470        0.47260
O         -3.54250       -0.98190       -1.82180
H         -5.39430        0.71210       -2.78130
H         -2.58000        3.73350       -3.77480
H         -3.52910       -1.47310        2.16850
H          0.32740       -3.15210        1.45410
H          3.44200       -0.54330       -0.92020
H          2.21870        2.86220       -3.14210
C          1.09680       -3.81040       -1.29290
C          1.97690       -5.05070       -1.37000
C          0.05300        4.79720       -3.21520
C          0.39600        5.89990       -4.20780
C         -2.95460        1.66900        0.81950
C         -4.84330       -1.46710       -1.62440
C         -5.26830        3.21590       -3.76530
C         -5.99000        2.48800       -4.90880
C         -6.24390        3.45110       -2.60310
C         -4.81860        4.58390       -4.28710
C         -1.85820       -3.59140        2.94690
C         -1.68270       -4.97270        2.29900
C         -3.25120       -3.53870        3.57940
C         -0.81780       -3.40610        4.06070
C          4.44570        1.59250       -2.19830
C          4.65470        2.87270       -3.01270
C          5.20240        0.45770       -2.90380
C          5.03800        1.82050       -0.80000
H          6.24750        0.72930       -3.03790
H          4.76620        0.26720       -3.88230
H          5.16360       -0.46310       -2.32870
H          5.71930        3.08970       -3.07690
H          4.16930        3.72320       -2.53940
H          4.27520        2.75970       -4.02580
H          6.08490        2.10740       -0.87670
H          4.97440        0.92280       -0.19170
H          4.49760        2.61490       -0.28960
H         -0.95910       -4.15660        4.83610
H         -0.92090       -2.42060        4.50980
H          0.19420       -3.49970        3.67650
H         -3.35690       -4.35030        4.29710
H         -4.02480       -3.65150        2.82370
H         -3.40520       -2.60150        4.10850
H         -5.69050        5.15680       -4.59750
H         -4.16430        4.47960       -5.14970
H         -4.30480        5.14910       -3.51290
H         -7.08330        4.06050       -2.93230
H         -5.73860        3.96830       -1.78990
H         -6.63320        2.51320       -2.21790
H         -6.80320        3.10180       -5.29130
H         -6.40690        1.54200       -4.57580
H         -5.29610        2.28650       -5.72240
H         -1.85130       -5.75730        3.03400
H         -0.68230       -5.09750        1.89400
H         -2.39700       -5.09900        1.48820
H          2.14610       -2.98450        0.41930
H          2.70810       -2.41080       -1.15230
H          0.83170       -3.47870       -2.29890
H          0.16960       -4.04630       -0.76920
H          2.89740       -4.83710       -1.90940
H          1.45640       -5.85400       -1.88520
H          2.23850       -5.39770       -0.37230
H         -3.78080        2.33840        0.58300
H         -2.07050        1.97660        0.25290
H         -2.72760        1.73130        1.89150
H         -4.72400       -2.45710       -1.18590
H         -5.39300       -1.55670       -2.56910
H         -5.40030       -0.83030       -0.93100
H         -0.87490        3.50030       -4.67840
H          0.82890        3.19250       -4.44140
H          0.83490        4.72320       -2.45680
H         -0.87910        5.03760       -2.70030
H          1.33340        5.68090       -4.71510
H          0.49760        6.85460       -3.69800
H         -0.38450        5.99440       -4.96000
C         -0.09570        3.44270        5.23450
C          1.81820       -2.66240        8.57390
C         -4.38630        1.09070        6.39140
C         -3.38140        0.31410        6.93470
C         -2.06440        0.82340        7.03100
C         -1.75000        2.00000        6.31630
C         -2.79150        2.77480        5.80910
C         -4.11390        2.35800        5.88010
C         -1.04940        0.18500        7.80190
C          0.30000        0.49900        7.49170
C          0.61670        1.62750        6.70900
N         -0.41760        2.37490        6.15640
C         -1.26860       -0.65500        8.93940
C         -0.24160       -1.55060        9.31690
N          0.98190       -1.48580        8.66070
C          1.33300       -0.32040        7.98740
C          2.65520        0.05200        7.79610
C          2.98010        1.20650        7.09190
C          1.95630        1.97180        6.54600
C         -2.41310       -0.60940        9.75930
C         -2.61100       -1.54600       10.75980
C         -1.66130       -2.51870       11.03760
C         -0.45920       -2.46730       10.33630
O         -3.38470        0.37470        9.62260
O         -3.54250       -0.98190        7.32820
H         -5.39430        0.71210        6.36870
H         -2.58000        3.73350        5.37520
H         -3.52910       -1.47310       11.31850
H          0.32740       -3.15210       10.60410
H          3.44200       -0.54330        8.22980
H          2.21870        2.86220        6.00790
C          1.09680       -3.81040        7.85710
C          1.97690       -5.05070        7.78000
C          0.05300        4.79720        5.93480
C          0.39600        5.89990        4.94220
C         -2.95460        1.66900        9.96950
C         -4.84330       -1.46710        7.52560
C         -5.26830        3.21590        5.38470
C         -5.99000        2.48800        4.24120
C         -6.24390        3.45110        6.54690
C         -4.81860        4.58390        4.86290
C         -1.85820       -3.59140       12.09690
C         -1.68270       -4.97270       11.44900
C         -3.25120       -3.53870       12.72940
C         -0.81780       -3.40610       13.21070
C          4.44570        1.59250        6.95170
C          4.65470        2.87270        6.13730
C          5.20240        0.45770        6.24620
C          5.03800        1.82050        8.35000
H          6.24750        0.72930        6.11210
H          4.76620        0.26720        5.26770
H          5.16360       -0.46310        6.82130
H          5.71930        3.08970        6.07310
H          4.16930        3.72320        6.61060
H          4.27520        2.75970        5.12420
H          6.08490        2.10740        8.27330
H          4.97440        0.92280        8.95830
H          4.49760        2.61490        8.86040
H         -0.95910       -4.15660       13.98610
H         -0.92090       -2.42060       13.65980
H          0.19420       -3.49970       12.82650
H         -3.35690       -4.35030       13.44710
H         -4.02480       -3.65150       11.97370
H         -3.40520       -2.60150       13.25850
H         -5.69050        5.15680        4.55250
H         -4.16430        4.47960        4.00030
H         -4.30480        5.14910        5.63710
H         -7.08330        4.06050        6.21770
H         -5.73860        3.96830        7.36010
H         -6.63320        2.51320        6.93210
H         -6.80320        3.10180        3.85870
H         -6.40690        1.54200        4.57420
H         -5.29610        2.28650        3.42760
H         -1.85130       -5.75730       12.18400
H         -0.68230       -5.09750       11.04400
H         -2.39700       -5.09900       10.63820
H          2.14610       -2.98450        9.56930
H          2.70810       -2.41080        7.99770
H          0.83170       -3.47870        6.85110
H          0.16960       -4.04630        8.38080
H          2.89740       -4.83710        7.24060
H          1.45640       -5.85400        7.26480
H          2.23850       -5.39770        8.77770
H         -3.78080        2.33840        9.73300
H         -2.07050        1.97660        9.40290
H         -2.72760        1.73130       11.04150
H         -4.72400       -2.45710        7.96410
H         -5.39300       -1.55670        6.58090
H         -5.40030       -0.83030        8.21900
H         -0.87490        3.50030        4.47160
H          0.82890        3.19250        4.70860
H          0.83490        4.72320        6.69320
H         -0.87910        5.03760        6.44970
H          1.33340        5.68090        4.43490
H          0.49760        6.85460        5.45200
H         -0.38450        5.99440        4.19000
