116
energy: -106.945974846975 gnorm: 0.000201644940 xtb: 6.7.1 (edcfbbe)_energy: -106.945974846975 gnorm: 0.000201644940 xtb: 6.7.1 (edcfbbe)
C         -2.57290        2.47100       -2.09270
C         -2.29500        1.31830       -1.39160
C         -1.25990        1.30950       -0.42830
C         -0.34570        2.41420       -0.40940
C         -0.67070        3.58630       -1.12560
C         -1.79380        3.62790       -1.91700
C         -0.99640        0.25010        0.49600
C          0.31150        0.16010        0.99430
C          1.21190        1.25300        0.81760
N          0.82910        2.38040        0.22370
C         -1.92590       -0.73170        0.95470
C         -1.37430       -1.93460        1.50280
N         -0.08250       -2.06890        1.81210
C          0.72790       -1.02240        1.67650
C          2.05330       -1.09160        2.15050
C          2.91760       -0.01400        1.99310
C          2.51410        1.14940        1.34900
C         -3.33550       -0.55940        0.95810
C         -4.14010       -1.64940        1.22260
C         -3.58280       -2.88970        1.58270
C         -2.22870       -3.02830        1.76530
O         -3.78620        0.69980        0.77850
O         -3.04210        0.19740       -1.68710
C         -2.11130        4.88720       -2.63840
C         -4.53130       -4.00760        1.82420
H         -0.00800        4.43470       -1.06560
H         -3.38840        2.47190       -2.79780
H          3.18430        1.98560        1.23920
H          2.39200       -1.98690        2.64720
H         -1.79540       -3.94130        2.13610
H         -5.21530       -1.58780        1.17920
O         -1.44220        5.88860       -2.58590
O         -3.23760        4.79470       -3.36050
C         -3.60970        5.96360       -4.07500
C          4.29590       -0.15280        2.54150
O          4.70630       -1.14030        3.09810
O          5.03670        0.94500        2.34950
C          6.36540        0.88970        2.84690
O         -5.73000       -3.91360        1.71480
O         -3.91240       -5.14070        2.17480
C         -4.75500       -6.25520        2.42560
C         -5.17430        0.91570        0.67670
C         -2.32240       -0.87550       -2.25780
H         -4.10030       -7.07030        2.72250
H         -5.31340       -6.51940        1.52500
H         -5.46550       -6.02250        3.22170
H          6.81550        1.85230        2.61860
H          6.91810        0.08190        2.36290
H          6.36000        0.71300        3.92440
H         -3.04150       -1.68250       -2.38680
H         -1.50630       -1.22170       -1.61670
H         -1.91250       -0.59150       -3.23360
H         -5.28940        1.98380        0.50050
H         -5.69150        0.63970        1.60070
H         -5.59660        0.36040       -0.16470
H         -4.52190        5.71530       -4.61130
H         -2.81910        6.25010       -4.77160
H         -3.78300        6.79120       -3.38410
C         -2.57290        2.47100        2.70730
C         -2.29500        1.31830        3.40840
C         -1.25990        1.30950        4.37170
C         -0.34570        2.41420        4.39060
C         -0.67070        3.58630        3.67440
C         -1.79380        3.62790        2.88300
C         -0.99640        0.25010        5.29600
C          0.31150        0.16010        5.79430
C          1.21190        1.25300        5.61760
N          0.82910        2.38040        5.02370
C         -1.92590       -0.73170        5.75470
C         -1.37430       -1.93460        6.30280
N         -0.08250       -2.06890        6.61210
C          0.72790       -1.02240        6.47650
C          2.05330       -1.09160        6.95050
C          2.91760       -0.01400        6.79310
C          2.51410        1.14940        6.14900
C         -3.33550       -0.55940        5.75810
C         -4.14010       -1.64940        6.02260
C         -3.58280       -2.88970        6.38270
C         -2.22870       -3.02830        6.56530
O         -3.78620        0.69980        5.57850
O         -3.04210        0.19740        3.11290
C         -2.11130        4.88720        2.16160
C         -4.53130       -4.00760        6.62420
H         -0.00800        4.43470        3.73440
H         -3.38840        2.47190        2.00220
H          3.18430        1.98560        6.03920
H          2.39200       -1.98690        7.44720
H         -1.79540       -3.94130        6.93610
H         -5.21530       -1.58780        5.97920
O         -1.44220        5.88860        2.21410
O         -3.23760        4.79470        1.43950
C         -3.60970        5.96360        0.72500
C          4.29590       -0.15280        7.34150
O          4.70630       -1.14030        7.89810
O          5.03670        0.94500        7.14950
C          6.36540        0.88970        7.64690
O         -5.73000       -3.91360        6.51480
O         -3.91240       -5.14070        6.97480
C         -4.75500       -6.25520        7.22560
C         -5.17430        0.91570        5.47670
C         -2.32240       -0.87550        2.54220
H         -4.10030       -7.07030        7.52250
H         -5.31340       -6.51940        6.32500
H         -5.46550       -6.02250        8.02170
H          6.81550        1.85230        7.41860
H          6.91810        0.08190        7.16290
H          6.36000        0.71300        8.72440
H         -3.04150       -1.68250        2.41320
H         -1.50630       -1.22170        3.18330
H         -1.91250       -0.59150        1.56640
H         -5.28940        1.98380        5.30050
H         -5.69150        0.63970        6.40070
H         -5.59660        0.36040        4.63530
H         -4.52190        5.71530        0.18870
H         -2.81910        6.25010        0.02840
H         -3.78300        6.79120        1.41590
