116
energy: -106.945974846975 gnorm: 0.000201644940 xtb: 6.7.1 (edcfbbe)_energy: -106.945974846975 gnorm: 0.000201644940 xtb: 6.7.1 (edcfbbe)
C         -2.57290        2.47100       -2.09270
C         -2.29500        1.31830       -1.39160
C         -1.25990        1.30950       -0.42830
C         -0.34570        2.41420       -0.40940
C         -0.67070        3.58630       -1.12560
C         -1.79380        3.62790       -1.91700
C         -0.99640        0.25010        0.49600
C          0.31150        0.16010        0.99430
C          1.21190        1.25300        0.81760
N          0.82910        2.38040        0.22370
C         -1.92590       -0.73170        0.95470
C         -1.37430       -1.93460        1.50280
N         -0.08250       -2.06890        1.81210
C          0.72790       -1.02240        1.67650
C          2.05330       -1.09160        2.15050
C          2.91760       -0.01400        1.99310
C          2.51410        1.14940        1.34900
C         -3.33550       -0.55940        0.95810
C         -4.14010       -1.64940        1.22260
C         -3.58280       -2.88970        1.58270
C         -2.22870       -3.02830        1.76530
O         -3.78620        0.69980        0.77850
O         -3.04210        0.19740       -1.68710
C         -2.11130        4.88720       -2.63840
C         -4.53130       -4.00760        1.82420
H         -0.00800        4.43470       -1.06560
H         -3.38840        2.47190       -2.79780
H          3.18430        1.98560        1.23920
H          2.39200       -1.98690        2.64720
H         -1.79540       -3.94130        2.13610
H         -5.21530       -1.58780        1.17920
O         -1.44220        5.88860       -2.58590
O         -3.23760        4.79470       -3.36050
C         -3.60970        5.96360       -4.07500
C          4.29590       -0.15280        2.54150
O          4.70630       -1.14030        3.09810
O          5.03670        0.94500        2.34950
C          6.36540        0.88970        2.84690
O         -5.73000       -3.91360        1.71480
O         -3.91240       -5.14070        2.17480
C         -4.75500       -6.25520        2.42560
C         -5.17430        0.91570        0.67670
C         -2.32240       -0.87550       -2.25780
H         -4.10030       -7.07030        2.72250
H         -5.31340       -6.51940        1.52500
H         -5.46550       -6.02250        3.22170
H          6.81550        1.85230        2.61860
H          6.91810        0.08190        2.36290
H          6.36000        0.71300        3.92440
H         -3.04150       -1.68250       -2.38680
H         -1.50630       -1.22170       -1.61670
H         -1.91250       -0.59150       -3.23360
H         -5.28940        1.98380        0.50050
H         -5.69150        0.63970        1.60070
H         -5.59660        0.36040       -0.16470
H         -4.52190        5.71530       -4.61130
H         -2.81910        6.25010       -4.77160
H         -3.78300        6.79120       -3.38410
C         -2.57290        2.47100        3.45730
C         -2.29500        1.31830        4.15840
C         -1.25990        1.30950        5.12170
C         -0.34570        2.41420        5.14060
C         -0.67070        3.58630        4.42440
C         -1.79380        3.62790        3.63300
C         -0.99640        0.25010        6.04600
C          0.31150        0.16010        6.54430
C          1.21190        1.25300        6.36760
N          0.82910        2.38040        5.77370
C         -1.92590       -0.73170        6.50470
C         -1.37430       -1.93460        7.05280
N         -0.08250       -2.06890        7.36210
C          0.72790       -1.02240        7.22650
C          2.05330       -1.09160        7.70050
C          2.91760       -0.01400        7.54310
C          2.51410        1.14940        6.89900
C         -3.33550       -0.55940        6.50810
C         -4.14010       -1.64940        6.77260
C         -3.58280       -2.88970        7.13270
C         -2.22870       -3.02830        7.31530
O         -3.78620        0.69980        6.32850
O         -3.04210        0.19740        3.86290
C         -2.11130        4.88720        2.91160
C         -4.53130       -4.00760        7.37420
H         -0.00800        4.43470        4.48440
H         -3.38840        2.47190        2.75220
H          3.18430        1.98560        6.78920
H          2.39200       -1.98690        8.19720
H         -1.79540       -3.94130        7.68610
H         -5.21530       -1.58780        6.72920
O         -1.44220        5.88860        2.96410
O         -3.23760        4.79470        2.18950
C         -3.60970        5.96360        1.47500
C          4.29590       -0.15280        8.09150
O          4.70630       -1.14030        8.64810
O          5.03670        0.94500        7.89950
C          6.36540        0.88970        8.39690
O         -5.73000       -3.91360        7.26480
O         -3.91240       -5.14070        7.72480
C         -4.75500       -6.25520        7.97560
C         -5.17430        0.91570        6.22670
C         -2.32240       -0.87550        3.29220
H         -4.10030       -7.07030        8.27250
H         -5.31340       -6.51940        7.07500
H         -5.46550       -6.02250        8.77170
H          6.81550        1.85230        8.16860
H          6.91810        0.08190        7.91290
H          6.36000        0.71300        9.47440
H         -3.04150       -1.68250        3.16320
H         -1.50630       -1.22170        3.93330
H         -1.91250       -0.59150        2.31640
H         -5.28940        1.98380        6.05050
H         -5.69150        0.63970        7.15070
H         -5.59660        0.36040        5.38530
H         -4.52190        5.71530        0.93870
H         -2.81910        6.25010        0.77840
H         -3.78300        6.79120        2.16590
