156
energy: -127.008970921938 gnorm: 0.000529887880 xtb: 6.7.1 (edcfbbe)_energy: -127.008970921938 gnorm: 0.000529887880 xtb: 6.7.1 (edcfbbe)
C          0.96180        3.35860       -3.29160
C          2.54290       -3.13720       -0.40870
C         -3.55660        1.51840       -1.83490
C         -2.60710        0.61860       -1.39560
C         -1.22610        0.88040       -1.60390
C         -0.85790        1.95100       -2.45120
C         -1.82850        2.84690       -2.88340
C         -3.16290        2.65540       -2.54330
C         -0.19040        0.05190       -1.06940
C          1.00730       -0.03510       -1.82190
C          1.30180        0.97350       -2.77190
N          0.46400        2.07440       -2.84220
C         -0.28990       -0.74210        0.10710
C          0.55250       -1.87400        0.24280
N          1.61490       -2.04680       -0.63280
C          1.89030       -1.12720       -1.63220
C          2.98360       -1.25070       -2.48040
C          3.23490       -0.28410       -3.45280
C          2.41180        0.83040       -3.58820
C         -1.16880       -0.40820        1.17430
C         -1.38470       -1.30740        2.19490
C         -0.71160       -2.53140        2.19490
C          0.27520       -2.79450        1.24860
O         -1.70100        0.84350        1.13570
O         -2.90940       -0.57400       -0.81330
C         -4.13830        3.65660       -3.00370
C         -1.04790       -3.49740        3.25040
C          4.38060       -0.40050       -4.37080
O          4.67530        0.42150       -5.20820
O          5.08970       -1.53400       -4.18730
C          6.20510       -1.70090       -5.04570
O         -3.85530        4.65740       -3.62270
O         -5.40770        3.35050       -2.66390
C         -6.39220        4.27930       -3.08440
O         -1.89370       -3.31790        4.09810
O         -0.30420       -4.62320        3.17640
C         -0.55040       -5.63200        4.14240
H         -4.60670        1.36430       -1.65580
H         -1.59570        3.69810       -3.49940
H         -2.07240       -1.11500        3.00150
H          0.78350       -3.73840        1.32220
H          3.65830       -2.08590       -2.43920
H          2.65600        1.53380       -4.36680
C          2.18070       -4.37940       -1.22670
C          3.17340       -5.50810       -0.98360
C          0.91140        4.39590       -2.16400
C          1.44050        5.74180       -2.64100
C         -2.56440        1.23460        2.17380
C         -4.26040       -0.90400       -0.61090
H         -7.35110        3.87010       -2.77480
H         -6.35930        4.40330       -4.16940
H         -6.22150        5.25250       -2.61770
H          0.39430       -5.87430        4.62980
H         -0.94280       -6.51510        3.63550
H         -1.27370       -5.27290        4.87740
H          6.64780       -2.66000       -4.78850
H          6.92520       -0.89340       -4.89540
H          5.88610       -1.69280       -6.09020
H          2.55720       -3.37870        0.65510
H          3.55110       -2.80360       -0.66120
H          2.16870       -4.11740       -2.28640
H          1.17470       -4.70440       -0.95460
H          4.17800       -5.20210       -1.26750
H          2.90420       -6.38360       -1.56860
H          3.18500       -5.78830        0.06740
H         -2.87790        2.24810        1.92630
H         -2.05300        1.23770        3.14190
H         -3.44410        0.58640        2.23580
H         -4.25150       -1.87970       -0.12650
H         -4.80390       -0.97300       -1.55910
H         -4.76270       -0.18150        0.04020
H          1.41970        6.46560       -1.83060
H          0.82980        6.12330       -3.45590
H          2.46560        5.64940       -2.99330
H          1.51480        4.03320       -1.32890
H         -0.11380        4.50900       -1.80960
H          0.39210        3.71050       -4.15690
H          1.99920        3.24230       -3.59940
C          0.96180        3.35860        2.55840
C          2.54290       -3.13720        5.44130
C         -3.55660        1.51840        4.01510
C         -2.60710        0.61860        4.45440
C         -1.22610        0.88040        4.24610
C         -0.85790        1.95100        3.39880
C         -1.82850        2.84690        2.96660
C         -3.16290        2.65540        3.30670
C         -0.19040        0.05190        4.78060
C          1.00730       -0.03510        4.02810
C          1.30180        0.97350        3.07810
N          0.46400        2.07440        3.00780
C         -0.28990       -0.74210        5.95710
C          0.55250       -1.87400        6.09280
N          1.61490       -2.04680        5.21720
C          1.89030       -1.12720        4.21780
C          2.98360       -1.25070        3.36960
C          3.23490       -0.28410        2.39720
C          2.41180        0.83040        2.26180
C         -1.16880       -0.40820        7.02430
C         -1.38470       -1.30740        8.04490
C         -0.71160       -2.53140        8.04490
C          0.27520       -2.79450        7.09860
O         -1.70100        0.84350        6.98570
O         -2.90940       -0.57400        5.03670
C         -4.13830        3.65660        2.84630
C         -1.04790       -3.49740        9.10040
C          4.38060       -0.40050        1.47920
O          4.67530        0.42150        0.64180
O          5.08970       -1.53400        1.66270
C          6.20510       -1.70090        0.80430
O         -3.85530        4.65740        2.22730
O         -5.40770        3.35050        3.18610
C         -6.39220        4.27930        2.76560
O         -1.89370       -3.31790        9.94810
O         -0.30420       -4.62320        9.02640
C         -0.55040       -5.63200        9.99240
H         -4.60670        1.36430        4.19420
H         -1.59570        3.69810        2.35060
H         -2.07240       -1.11500        8.85150
H          0.78350       -3.73840        7.17220
H          3.65830       -2.08590        3.41080
H          2.65600        1.53380        1.48320
C          2.18070       -4.37940        4.62330
C          3.17340       -5.50810        4.86640
C          0.91140        4.39590        3.68600
C          1.44050        5.74180        3.20900
C         -2.56440        1.23460        8.02380
C         -4.26040       -0.90400        5.23910
H         -7.35110        3.87010        3.07520
H         -6.35930        4.40330        1.68060
H         -6.22150        5.25250        3.23230
H          0.39430       -5.87430       10.47980
H         -0.94280       -6.51510        9.48550
H         -1.27370       -5.27290       10.72740
H          6.64780       -2.66000        1.06150
H          6.92520       -0.89340        0.95460
H          5.88610       -1.69280       -0.24020
H          2.55720       -3.37870        6.50510
H          3.55110       -2.80360        5.18880
H          2.16870       -4.11740        3.56360
H          1.17470       -4.70440        4.89540
H          4.17800       -5.20210        4.58250
H          2.90420       -6.38360        4.28140
H          3.18500       -5.78830        5.91740
H         -2.87790        2.24810        7.77630
H         -2.05300        1.23770        8.99190
H         -3.44410        0.58640        8.08580
H         -4.25150       -1.87970        5.72350
H         -4.80390       -0.97300        4.29090
H         -4.76270       -0.18150        5.89020
H          1.41970        6.46560        4.01940
H          0.82980        6.12330        2.39410
H          2.46560        5.64940        2.85670
H          1.51480        4.03320        4.52110
H         -0.11380        4.50900        4.04040
H          0.39210        3.71050        1.69310
H          1.99920        3.24230        2.25060
