190
energy: -557.693656186693 gnorm: 0.000309336484 xtb: 6.7.1 (edcfbbe)
C          1.92900        2.81230        2.11230
C          1.96440        1.49340        1.66490
C          2.55700        1.16410        0.41240
C          2.81260        2.29510       -0.44900
C          2.64350        3.63870       -0.00430
C          2.29540        3.86260        1.28750
C          3.03040       -0.13300       -0.01690
C          3.75820       -0.12410       -1.23310
C          3.78150        1.02910       -2.07220
N          3.28490        2.18900       -1.68040
C          3.04480       -1.39360        0.70540
C          4.12300       -2.30420        0.35210
N          4.78150       -2.24170       -0.78890
C          4.55480       -1.24080       -1.62380
C          5.22510       -1.24590       -2.86950
C          5.11470       -0.15030       -3.68860
C          4.42590        0.97960       -3.33470
C          2.13260       -1.92950        1.66170
C          2.52150       -3.01460        2.45730
C          3.71550       -3.67090        2.26090
C          4.50180       -3.39230        1.19190
O          1.39120        0.59860        2.46140
O          0.86560       -1.59870        1.83250
C         -1.09520       -2.31810        3.73950
C         -1.47380       -1.40840        2.75280
C         -2.42990       -1.77500        1.77250
C         -2.97730       -3.10740        1.84570
C         -2.47830       -4.03980        2.79670
C         -1.56400       -3.61510        3.70680
C         -2.96000       -0.89960        0.76440
C         -4.11260       -1.35200        0.08950
C         -4.53080       -2.71200        0.20840
N         -3.94200       -3.54960        1.04910
C         -2.51060        0.42230        0.40420
C         -3.52190        1.29850       -0.13710
N         -4.65320        0.85390       -0.66660
C         -4.87440       -0.45500       -0.71780
C         -5.92600       -0.95930       -1.51600
C         -6.22720       -2.29730       -1.44430
C         -5.59170       -3.17910       -0.60830
C         -1.18140        0.91880        0.42940
C         -0.97450        2.28440        0.25430
C         -2.03280        3.14010        0.02830
C         -3.29520        2.70230       -0.20530
O         -0.85800       -0.22720        2.74040
O         -0.10920        0.14010        0.54170
B          0.34880       -0.25560        1.88890
S          2.36120        5.56840        2.00910
F          1.45550        5.10410        3.32590
F          3.72850        5.10360        2.85820
F          2.50640        6.99810        2.71210
F          3.38120        6.11220        0.82340
F          1.11300        6.13340        1.14220
S          4.13840       -4.94720        3.52460
F          4.79220       -5.96420        2.39290
F          5.63760       -4.24670        3.73100
F          4.55570       -6.00770        4.64420
F          3.56650       -3.96030        4.72780
F          2.69000       -5.69500        3.37420
S          5.97730       -0.18170       -5.32620
F          4.64960        0.44730       -6.08440
F          5.42350       -1.70910       -5.63460
F          6.70580       -0.21870       -6.75570
F          7.34570       -0.82090       -4.67010
F          6.57070        1.34000       -5.12010
S         -0.85020       -4.81140        4.93020
F         -0.49750       -5.87640        3.71480
F         -2.34150       -5.50350        5.12610
F         -0.27130       -5.86150        5.96240
F         -1.12630       -3.71860        6.16380
F          0.66660       -4.12750        4.81010
S         -1.60910        4.93500        0.14230
F         -2.38410        5.28960       -1.27920
F         -3.01060        5.22930        0.98050
F         -1.27590        6.47780        0.28930
F         -0.82370        4.58630        1.58560
F         -0.18230        4.72390       -0.68330
S         -7.61150       -2.92570       -2.49770
F         -7.04920       -2.06670       -3.79770
F         -8.60050       -1.67750       -2.11980
F         -8.77100       -3.48860       -3.45760
F         -8.23190       -3.85710       -1.29800
F         -6.68560       -4.21550       -2.98100
H         -2.85420       -5.04780        2.77260
H         -5.87860       -4.21620       -0.55510
H         -6.47770       -0.28600       -2.15020
H         -0.38670       -1.99360        4.48120
H          0.02560        2.67050        0.30910
H          4.39380        1.85200       -3.96720
H          1.83960       -3.35070        3.21660
H          5.83080       -2.09760       -3.13330
H          2.86580        4.42660       -0.70220
H          5.37290       -3.96520        0.92550
H         -4.10260        3.35060       -0.49640
H          1.51740        2.97980        3.09000
C          0.81640        3.86310       10.35550
C          1.03170        2.58170        9.82580
C          2.13960        2.32100        8.96820
C          2.86820        3.50520        8.54810
C          2.58930        4.80120        9.06450
C          1.59260        4.93840        9.97260
C          2.68360        1.03890        8.57000
C          3.79070        1.10590        7.68570
C          4.23060        2.34610        7.13090
N          3.83690        3.48430        7.65750
C          2.37770       -0.31120        9.03810
C          3.49590       -1.24010        8.97710
N          4.51640       -1.10280        8.15830
C          4.57560       -0.04290        7.36570
C          5.49120       -0.01440        6.29460
C          5.68010        1.17590        5.63330
C          5.13890        2.36150        6.04610
C          1.16800       -0.91580        9.47860
C          1.19930       -2.18280       10.10860
C          2.34630       -2.93880       10.19940
C          3.51250       -2.48830        9.66880
O          0.13980        1.67350       10.16450
O         -0.06010       -0.50430        9.26300
C         -2.61030       -1.29490       10.32470
C         -2.61440       -0.28810        9.35650
C         -3.27600       -0.48810        8.12210
C         -3.95120       -1.75270        7.94490
C         -3.83320       -2.79440        8.90940
C         -3.19090       -2.52170       10.07370
C         -3.45130        0.52800        7.11370
C         -4.53970        0.29530        6.23690
C         -5.18360       -0.97760        6.19300
N         -4.79310       -1.99660        6.95100
C         -2.77780        1.79830        6.97600
C         -3.52320        2.82780        6.27830
N         -4.59680        2.58850        5.54380
C         -5.07670        1.35620        5.45070
C         -6.24000        1.14640        4.66950
C         -6.83610       -0.08930        4.69190
C         -6.32730       -1.15980        5.38290
C         -1.46210        2.17010        7.37840
C         -1.06580        3.51070        7.28270
C         -1.92500        4.50970        6.86350
C         -3.13980        4.19850        6.34620
O         -1.97430        0.83970        9.63360
O         -0.53540        1.32790        7.81740
B         -0.57280        0.85040        9.21230
S          1.26430        6.59650       10.71710
F         -0.36060        6.47500       10.55930
F          1.12660        5.89620       12.22120
F          1.03120        8.01170       11.44940
F          2.88720        6.79520       11.01290
F          1.45450        7.41410        9.32000
S          2.24670       -4.62810       10.95120
F          2.45310       -5.37100        9.51230
F          3.88720       -4.66090       11.20140
F          2.20820       -6.07140       11.65700
F          2.06940       -3.95460       12.45580
F          0.62750       -4.72080       10.80820
S          6.66550        1.17820        4.07310
F          5.42900        1.99020        3.28730
F          5.93930       -0.25730        3.60710
F          7.42170        1.13910        2.65190
F          7.91590        0.32700        4.71800
F          7.41640        2.60050        4.39140
S         -3.05550       -3.78440       11.41990
F         -2.62990       -5.00730       10.43000
F         -4.64380       -4.22240       11.22750
F         -2.97390       -4.82330       12.64310
F         -3.54210       -2.65140       12.53780
F         -1.49320       -3.36460       11.73410
S         -1.49160        6.28000        7.24320
F         -2.82580        6.86710        6.46630
F         -2.41040        6.09570        8.61980
F         -1.19910        7.77960        7.72770
F         -0.14150        5.82180        8.10120
F         -0.60080        6.57930        5.91840
S         -8.47340       -0.31610        3.85500
F         -7.92330        0.43670        2.48810
F         -9.03570        1.13010        4.41350
F         -9.87060       -0.53580        3.12030
F         -9.10100       -1.07580        5.17700
F         -7.97360       -1.78770        3.25710
H         -4.31330       -3.73830        8.71750
H         -6.82010       -2.11760        5.39300
H         -6.67020        1.97990        4.14030
H         -2.11570       -1.09460       11.26030
H         -0.06770        3.75780        7.59440
H          5.35100        3.30740        5.57560
H          0.26380       -2.55560       10.49200
H          6.01150       -0.91940        6.02680
H          3.16120        5.62920        8.68240
H          4.41290       -3.07550        9.62000
H         -3.82380        4.92820        5.95040
H         -0.00850        3.99250       11.03720
