156
energy: -130.265278472733 gnorm: 0.000376113410 xtb: 6.7.1 (edcfbbe)_energy: -130.265278472733 gnorm: 0.000376113410 xtb: 6.7.1 (edcfbbe)
C          0.82910        3.22690       -3.38500
C          2.76070       -3.12100       -0.26970
C         -3.39550        0.60110       -2.33710
C         -2.36450       -0.05140       -1.68540
C         -1.04190        0.45870       -1.76880
C         -0.75890        1.51030       -2.67020
C         -1.81350        2.14440       -3.32280
C         -3.10540        1.71240       -3.11330
C          0.04050       -0.10150       -1.02610
C          1.33750        0.02240       -1.59220
C          1.58870        1.03550       -2.54540
N          0.55670        1.89600       -2.88000
C         -0.05070       -0.76240        0.23600
C          0.96020       -1.69060        0.57730
N          2.03710       -1.86610       -0.28060
C          2.35800       -0.86950       -1.18940
C          3.63430       -0.71090       -1.71610
C          3.85260        0.26370       -2.67440
C          2.86000        1.12200       -3.10280
C         -1.06440       -0.45960        1.18130
C         -1.16190       -1.20660        2.34180
C         -0.22470       -2.19100        2.59720
C          0.85540       -2.41100        1.76370
O         -1.86170        0.60620        0.89470
O         -2.51650       -1.21430       -0.99120
S         -4.49050        2.61890       -3.86860
S         -0.39580       -3.24200        4.07210
S          5.52740        0.39750       -3.38140
O          5.42410        1.49260       -4.32840
O          5.47900       -1.04200       -4.24850
C          4.66110       -1.04620       -5.38810
O         -3.84700        3.67280       -4.63230
O         -5.05520        3.29560       -2.43440
C         -4.23990        4.28160       -1.86080
O         -1.62840       -2.78650        4.68970
O         -0.73170       -4.66100        3.22970
C         -1.97030       -4.70220        2.57440
H         -4.42090        0.27940       -2.25620
H         -1.67270        2.97160       -3.99790
H         -1.94240       -1.05610        3.07020
H          1.58620       -3.14660        2.05390
H          4.46580       -1.32410       -1.40850
H          3.11850        1.83030       -3.87340
C          1.84920       -4.29710       -0.63970
C          2.63230       -5.60270       -0.67480
C          0.38930        4.30140       -2.38370
C          0.64110        5.69700       -2.93820
C         -2.87520        0.94500        1.80780
C         -3.80930       -1.74670       -0.85460
H         -4.87620        4.92670       -1.25620
H         -3.76410        4.87660       -2.64790
H         -3.46640        3.82740       -1.23140
H         -2.24310       -5.74930        2.44940
H         -1.90720       -4.21480        1.59490
H         -2.73040       -4.19810        3.18100
H          5.05480       -1.79440       -6.07470
H          4.68610       -0.06240       -5.86880
H          3.62740       -1.29240       -5.12250
H          3.22400       -3.29230        0.70760
H          3.55710       -3.06750       -1.01030
H          1.40920       -4.10100       -1.61990
H          1.03380       -4.37860        0.07970
H          3.43830       -5.54920       -1.40340
H          1.97940       -6.42810       -0.94570
H          3.06440       -5.81510        0.30050
H         -3.39010        1.80030        1.37150
H         -2.46170        1.22780        2.78130
H         -3.58820        0.12580        1.94550
H         -3.69730       -2.63790       -0.23770
H         -4.23300       -2.03010       -1.82420
H         -4.48660       -1.04570       -0.35640
H          0.34570        6.45160       -2.21390
H          0.06770        5.85380       -3.84900
H          1.69530        5.83500       -3.16760
H          0.94600        4.16250       -1.45420
H         -0.67110        4.18350       -2.15640
H          0.33050        3.37880       -4.34700
H          1.89970        3.33140       -3.54700
C          0.82910        3.22690        2.51500
C          2.76070       -3.12100        5.63030
C         -3.39550        0.60110        3.56290
C         -2.36450       -0.05140        4.21460
C         -1.04190        0.45870        4.13120
C         -0.75890        1.51030        3.22980
C         -1.81350        2.14440        2.57720
C         -3.10540        1.71240        2.78670
C          0.04050       -0.10150        4.87390
C          1.33750        0.02240        4.30780
C          1.58870        1.03550        3.35460
N          0.55670        1.89600        3.02000
C         -0.05070       -0.76240        6.13600
C          0.96020       -1.69060        6.47730
N          2.03710       -1.86610        5.61940
C          2.35800       -0.86950        4.71060
C          3.63430       -0.71090        4.18390
C          3.85260        0.26370        3.22560
C          2.86000        1.12200        2.79720
C         -1.06440       -0.45960        7.08130
C         -1.16190       -1.20660        8.24180
C         -0.22470       -2.19100        8.49720
C          0.85540       -2.41100        7.66370
O         -1.86170        0.60620        6.79470
O         -2.51650       -1.21430        4.90880
S         -4.49050        2.61890        2.03140
S         -0.39580       -3.24200        9.97210
S          5.52740        0.39750        2.51860
O          5.42410        1.49260        1.57160
O          5.47900       -1.04200        1.65150
C          4.66110       -1.04620        0.51190
O         -3.84700        3.67280        1.26770
O         -5.05520        3.29560        3.46560
C         -4.23990        4.28160        4.03920
O         -1.62840       -2.78650       10.58970
O         -0.73170       -4.66100        9.12970
C         -1.97030       -4.70220        8.47440
H         -4.42090        0.27940        3.64380
H         -1.67270        2.97160        1.90210
H         -1.94240       -1.05610        8.97020
H          1.58620       -3.14660        7.95390
H          4.46580       -1.32410        4.49150
H          3.11850        1.83030        2.02660
C          1.84920       -4.29710        5.26030
C          2.63230       -5.60270        5.22520
C          0.38930        4.30140        3.51630
C          0.64110        5.69700        2.96180
C         -2.87520        0.94500        7.70780
C         -3.80930       -1.74670        5.04540
H         -4.87620        4.92670        4.64380
H         -3.76410        4.87660        3.25210
H         -3.46640        3.82740        4.66860
H         -2.24310       -5.74930        8.34940
H         -1.90720       -4.21480        7.49490
H         -2.73040       -4.19810        9.08100
H          5.05480       -1.79440       -0.17470
H          4.68610       -0.06240        0.03120
H          3.62740       -1.29240        0.77750
H          3.22400       -3.29230        6.60760
H          3.55710       -3.06750        4.88970
H          1.40920       -4.10100        4.28010
H          1.03380       -4.37860        5.97970
H          3.43830       -5.54920        4.49660
H          1.97940       -6.42810        4.95430
H          3.06440       -5.81510        6.20050
H         -3.39010        1.80030        7.27150
H         -2.46170        1.22780        8.68130
H         -3.58820        0.12580        7.84550
H         -3.69730       -2.63790        5.66230
H         -4.23300       -2.03010        4.07580
H         -4.48660       -1.04570        5.54360
H          0.34570        6.45160        3.68610
H          0.06770        5.85380        2.05100
H          1.69530        5.83500        2.73240
H          0.94600        4.16250        4.44580
H         -0.67110        4.18350        3.74360
H          0.33050        3.37880        1.55300
H          1.89970        3.33140        2.35300
