274
 energy: -391.781376575667 gnorm: 0.000650369855 xtb: 6.7.1 (edcfbbe)
 C   -2.366600   -2.607000    1.297300
 C   -2.683900   -1.329400    0.831600
 C   -3.800600   -1.152200   -0.036200
 C   -4.403400   -2.372400   -0.519700
 C   -3.997900   -3.640300   -0.049800
 C   -3.044900   -3.773300    0.927200
 C   -4.497800    0.059200   -0.369500
 C   -5.734700   -0.075200   -1.033000
 C   -6.121400   -1.313200   -1.608500
 N   -5.437300   -2.424000   -1.360200
 C   -4.175000    1.410100   -0.017700
 C   -5.251100    2.359900    0.075700
 N   -6.452900    2.148800   -0.451600
 C   -6.652100    1.007300   -1.115400
 C   -7.845500    0.855900   -1.840200
 C   -8.160800   -0.320200   -2.514000
 C   -7.295200   -1.394000   -2.392000
 C   -2.873900    1.923300    0.139500
 C   -2.701400    3.165900    0.743300
 C   -3.765000    4.036200    1.007000
 C   -5.025100    3.636600    0.634100
 O   -1.935300   -0.346900    1.354600
 O   -1.843000    1.256400   -0.392600
 B   -1.029900    0.452100    0.518600
 C    0.365900   -2.562300   -0.530400
 C    0.650800   -1.333100    0.071700
 C    1.798000   -1.209600    0.913900
 C    2.472600   -2.450100    1.210300
 C    2.092200   -3.674600    0.614400
 C    1.099800   -3.732500   -0.332700
 C    2.488100   -0.013500    1.320800
 C    3.782300   -0.169500    1.864100
 C    4.261900   -1.446400    2.242000
 N    3.582400   -2.549500    1.946900
 C    2.142000    1.335500    1.005200
 C    3.226000    2.263700    0.816200
 N    4.426700    2.087400    1.356900
 C    4.682200    0.925700    1.961900
 C    5.970000    0.736800    2.505500
 C    6.425300   -0.514300    2.906200
 C    5.547800   -1.585000    2.807100
 C    0.844200    1.849100    0.797500
 C    0.703700    2.954600   -0.038700
 C    1.792100    3.697200   -0.513600
 C    3.029800    3.408600    0.011100
 O   -0.204700    1.271100    1.382300
 O   -0.148200   -0.347400   -0.345000
 C   -2.833000   -5.096200    1.641500
 C   -1.498100   -5.129000    2.387700
 C   -2.903300   -6.290900    0.682500
 C   -3.975900   -5.217300    2.663200
 C   -3.537400    5.437800    1.546900
 C   -4.580600    5.739200    2.631000
 C   -2.137800    5.615800    2.141000
 C   -3.700200    6.426600    0.381900
 C   -9.455300   -0.384800   -3.308200
 C   -9.636400   -1.724900   -4.024000
 C   -9.450600    0.730000   -4.363200
 C  -10.631600   -0.185100   -2.342100
 C    0.916300   -4.961900   -1.207500
 C   -0.390000   -4.912600   -2.005300
 C    0.955900   -6.258300   -0.390200
 C    2.093400   -4.966500   -2.197500
 C    1.637600    4.789400   -1.560000
 C    2.481500    4.384100   -2.778100
 C    2.139800    6.129200   -1.007600
 C    0.187800    4.967700   -2.017500
 C    7.883400   -0.765800    3.264400
 C    8.652500    0.530500    3.534100
 C    8.015400   -1.673400    4.491300
 C    8.516900   -1.468300    2.051300
 H  -11.573200   -0.241300   -2.883800
 H  -10.579100    0.781200   -1.848400
 H  -10.625600   -0.959800   -1.578200
 H  -10.561500   -1.707300   -4.596200
 H   -9.697700   -2.544400   -3.312200
 H   -8.816900   -1.911900   -4.713800
 H  -10.364200    0.689800   -4.952100
 H   -8.602600    0.609500   -5.034100
 H   -9.385200    1.712500   -3.904800
 H   -3.851400   -6.121800    3.255400
 H   -4.936500   -5.267200    2.154500
 H   -3.973600   -4.351900    3.322400
 H   -1.316000   -6.128500    2.777400
 H   -1.509000   -4.441300    3.227600
 H   -0.677800   -4.857800    1.728000
 H   -2.698100   -7.209200    1.229300
 H   -2.173200   -6.198100   -0.115600
 H   -3.889100   -6.386400    0.236800
 H   -0.546600   -5.862500   -2.512800
 H   -0.353800   -4.133500   -2.762600
 H   -1.240800   -4.722300   -1.355600
 H    1.999800   -5.803700   -2.886100
 H    3.040100   -5.054100   -1.670100
 H    2.108300   -4.043900   -2.773600
 H    0.839700   -7.112700   -1.054100
 H    0.153500   -6.281500    0.340300
 H    1.901000   -6.369600    0.132900
 H   -4.312500    6.646400    3.168500
 H   -4.633400    4.909600    3.330200
 H   -5.565900    5.886900    2.198000
 H    2.055800    6.900000   -1.770900
 H    3.179300    6.064800   -0.700600
 H    1.543600    6.428100   -0.148700
 H   -2.059700    6.604500    2.588900
 H   -1.367500    5.541200    1.376600
 H   -1.946300    4.872700    2.910500
 H   -3.557100    7.445900    0.734700
 H   -4.690400    6.348100   -0.059300
 H   -2.966300    6.223100   -0.395400
 H    2.385500    5.127400   -3.566900
 H    2.144100    3.424700   -3.164300
 H    3.531900    4.295200   -2.514800
 H    0.144900    5.726300   -2.796900
 H   -0.445800    5.295500   -1.196300
 H   -0.211400    4.042200   -2.425000
 H    8.423200   -0.849200    1.161600
 H    8.030300   -2.420800    1.856700
 H    9.573200   -1.650500    2.236400
 H    7.564300   -1.206500    5.360100
 H    9.067100   -1.848600    4.707900
 H    7.542100   -2.638500    4.337500
 H    8.159900    1.132500    4.292800
 H    8.755500    1.121100    2.627200
 H    9.652700    0.290000    3.888500
 H    6.607800    1.604700    2.522500
 H    5.841400   -2.584800    3.084000
 H    2.708600   -4.525000    0.856100
 H    3.899900    4.007100   -0.201300
 H   -5.879700    4.290100    0.689300
 H   -4.547800   -4.477400   -0.446600
 H   -8.507700    1.706700   -1.849000
 H   -7.491900   -2.346900   -2.852700
 H   -0.470500   -2.540700   -1.209900
 H   -1.542900   -2.643900    1.991200
 H   -1.696000    3.450900    0.994700
 H   -0.292800    3.189700   -0.364300
 C   -0.242700   -2.073000    6.507000
 C   -0.492800   -0.929500    5.742400
 C   -1.638700   -0.887800    4.890300
 C   -2.351800   -2.136100    4.766800
 C   -2.006300   -3.278400    5.525100
 C   -1.012200   -3.236500    6.471200
 C   -2.293600    0.261300    4.321800
 C   -3.593700    0.071800    3.803900
 C   -4.113600   -1.229700    3.605500
 N   -3.466900   -2.301800    4.050500
 C   -1.905500    1.629700    4.448400
 C   -2.959900    2.608100    4.506400
 N   -4.167200    2.395800    3.994100
 C   -4.460200    1.170000    3.555300
 C   -5.755200    0.947700    3.042400
 C   -6.250000   -0.332100    2.817800
 C   -5.405200   -1.405300    3.064200
 C   -0.591800    2.126500    4.585300
 C   -0.415200    3.331700    5.261800
 C   -1.478800    4.165900    5.628100
 C   -2.726300    3.846400    5.146300
 O    0.336700    0.079300    6.021700
 O    0.436800    1.440800    4.087700
 B    1.240300    0.727100    5.058900
 C    2.490600   -2.445300    4.714000
 C    2.844900   -1.125300    5.000200
 C    3.967400   -0.861700    5.838100
 C    4.537100   -2.021200    6.485100
 C    4.095700   -3.330000    6.191700
 C    3.136700   -3.568800    5.241300
 C    4.697000    0.364900    6.006300
 C    5.929300    0.289500    6.687500
 C    6.282700   -0.869900    7.426300
 N    5.569200   -1.986800    7.327800
 C    4.411500    1.662800    5.471100
 C    5.512900    2.561800    5.255700
 N    6.707000    2.393200    5.816000
 C    6.874300    1.348600    6.629400
 C    8.063600    1.273500    7.379000
 C    8.344400    0.194100    8.204200
 C    7.450900   -0.869300    8.216300
 C    3.125200    2.184500    5.237400
 C    2.988200    3.335800    4.466500
 C    4.075900    4.132900    4.093000
 C    5.323500    3.755300    4.526400
 O    2.075900    1.626700    5.852500
 O    2.123100   -0.204100    4.344600
 C   -0.862300   -4.339800    7.505800
 C    0.446400   -4.219900    8.292000
 C   -0.940500   -5.734000    6.872900
 C   -2.037100   -4.175700    8.484900
 C   -1.287700    5.386100    6.515000
 C   -2.137900    5.176200    7.777200
 C    0.168700    5.582200    6.943400
 C   -1.752700    6.652000    5.784700
 C   -7.716400   -0.585500    2.496600
 C   -7.880400   -1.643700    1.401300
 C   -8.448600    0.685500    2.056900
 C   -8.365400   -1.101300    3.792300
 C    2.884900   -4.970500    4.714900
 C    1.547100   -5.066800    3.979500
 C    2.924000   -6.023800    5.828800
 C    4.020300   -5.263200    3.719900
 C    3.888400    5.452300    3.363700
 C    4.939700    5.570800    2.252300
 C    4.079900    6.587700    4.381500
 C    2.494400    5.586500    2.745500
 C    9.605900    0.123600    9.049900
 C   10.451900    1.395400    8.947500
 C    9.209800   -0.073100   10.519200
 C   10.453500   -1.062500    8.570100
 H   -9.427800   -1.272400    3.634000
 H   -8.247500   -0.373700    4.592600
 H   -7.908100   -2.035000    4.110500
 H   -8.938000   -1.819600    1.216500
 H   -7.428000   -2.591300    1.678200
 H   -7.426500   -1.306200    0.475800
 H   -9.455900    0.429300    1.735400
 H   -7.940400    1.167300    1.226000
 H   -8.532100    1.393400    2.877700
 H   -1.965500   -4.912500    9.282100
 H   -2.986900   -4.308400    7.972700
 H   -2.025100   -3.182600    8.928700
 H    0.576100   -5.095600    8.925200
 H    0.434500   -3.343800    8.935400
 H    1.301100   -4.145400    7.624100
 H   -0.850600   -6.492800    7.647800
 H   -0.138600   -5.880600    6.156400
 H   -1.888100   -5.887400    6.365200
 H    1.335000   -6.104700    3.730800
 H    1.575000   -4.501600    3.053100
 H    0.737100   -4.683900    4.595100
 H    3.868400   -6.236800    3.258000
 H    4.981000   -5.269500    4.230700
 H    4.039300   -4.497200    2.947700
 H    2.691900   -7.002300    5.412800
 H    2.198700   -5.802000    6.605500
 H    3.907900   -6.085000    6.284800
 H   -2.017100    6.017300    8.456800
 H   -1.827000    4.269200    8.291000
 H   -3.191600    5.083000    7.528700
 H    3.964900    7.552000    3.890800
 H    5.067800    6.543600    4.832300
 H    3.341100    6.514100    5.177100
 H    0.237300    6.439400    7.610700
 H    0.808100    5.774600    6.084700
 H    0.542100    4.710200    7.474500
 H   -1.642600    7.517200    6.435300
 H   -2.795100    6.577300    5.489800
 H   -1.151900    6.812800    4.892600
 H    4.698900    6.403500    1.594700
 H    4.966800    4.652000    1.673600
 H    5.929200    5.746500    2.664600
 H    2.444500    6.506500    2.166300
 H    1.722400    5.638900    3.510000
 H    2.281900    4.750900    2.084100
 H   10.719700   -0.933600    7.523000
 H    9.914900   -2.000300    8.671900
 H   11.369200   -1.127400    9.153500
 H    8.588900    0.755000   10.854600
 H   10.099700   -0.111000   11.143500
 H    8.654600   -0.995600   10.661800
 H    9.886500    2.267700    9.266900
 H   10.805500    1.552100    7.931300
 H   11.322200    1.303300    9.593900
 H    8.738300    2.105800    7.274300
 H    7.632000   -1.755700    8.802500
 H    4.623200   -4.119900    6.700000
 H    6.195600    4.372300    4.388100
 H   -3.577100    4.494800    5.273200
 H   -2.649300   -4.134600    5.402300
 H   -6.366400    1.824100    2.906000
 H   -5.730200   -2.424300    2.927900
 H    1.664100   -2.553800    4.031100
 H    0.596500   -1.984000    7.177500
 H    0.588800    3.578100    5.554300
 H    1.991700    3.610100    4.171600
